*SPEF "IEEE 1481.1999"
*DESIGN "nibble_mem"
*DATE "23:54:38 Thursday January 01, 2026"
*VENDOR "unknown"
*PROGRAM "qrouter"
*VERSION "unknown"
*DESIGN_FLOW "qflow"
*DIVIDER /
*DELIMITER :
*BUS_DELIMITER <>
*T_UNIT 1 PS
*C_UNIT 1 FF
*R_UNIT 1 OHM
*L_UNIT 1 HENRY

*NAME_MAP
*1 _232_
*2 AOI21X1_65
*3 NAND3X1_40
*4 AND2X2_1
*5 NAND3X1_51
*6 NAND2X1_39
*7 NAND2X1_47
*8 NAND3X1_52
*9 NAND3X1_60
*10 NAND3X1_57
*11 NAND3X1_59
*12 AND2X2_3
*13 AND2X2_5
*14 AND2X2_6
*15 NAND3X1_73
*16 NAND3X1_72
*17 NAND2X1_25
*18 NAND2X1_26
*19 _806_
*20 NAND2X1_3
*21 NOR2X1_170
*22 NOR2X1_168
*23 NOR2X1_155
*24 NOR2X1_165
*25 NOR2X1_169
*26 NOR2X1_142
*27 NOR2X1_143
*28 NOR2X1_162
*29 NOR2X1_157
*30 NOR2X1_164
*31 NOR2X1_148
*32 NOR2X1_156
*33 NOR2X1_167
*34 NOR2X1_154
*35 NOR2X1_166
*36 _891_
*37 NAND2X1_4
*38 NOR2X1_20
*39 NOR2X1_182
*40 NOR2X1_177
*41 NOR2X1_186
*42 NOR2X1_191
*43 NOR2X1_10
*44 NOR2X1_14
*45 NOR2X1_172
*46 NOR2X1_175
*47 NOR2X1_206
*48 NOR2X1_197
*49 NOR2X1_203
*50 NOR2X1_7
*51 NOR2X1_198
*52 NOR2X1_17
*53 addr_after_3_
*54 AOI22X1_3
*55 OAI21X1_47
*56 NAND3X1_111
*57 AOI21X1_65
*58 NAND3X1_24
*59 NOR3X1_2
*60 NAND3X1_89
*61 NOR3X1_52
*62 NOR2X1_42
*63 DFFSR_210
*64 NOR3X1_9
*65 OAI21X1_50
*66 NOR3X1_51
*67 NAND3X1_49
*68 NAND3X1_54
*69 _113_
*70 NOR2X1_21
*71 NAND2X1_5
*72 NAND2X1_9
*73 NAND2X1_16
*74 NAND2X1_13
*75 NAND2X1_15
*76 NAND2X1_8
*77 NAND2X1_7
*78 NAND2X1_14
*79 NAND2X1_10
*80 NAND2X1_11
*81 NAND2X1_6
*82 INVX2_1
*83 _252_
*84 NAND3X1_48
*85 NOR3X1_39
*86 NOR3X1_40
*87 NOR2X1_40
*88 NOR3X1_41
*89 NOR3X1_45
*90 NOR3X1_15
*91 NOR2X1_43
*92 NOR3X1_16
*93 NOR3X1_34
*94 NOR3X1_14
*95 NOR3X1_49
*96 NOR2X1_41
*97 _696_
*98 INVX4_1
*99 NOR2X1_35
*100 NOR2X1_196
*101 NOR2X1_129
*102 NOR2X1_123
*103 NOR2X1_136
*104 NOR2X1_128
*105 NOR2X1_57
*106 NOR2X1_130
*107 NOR2X1_139
*108 NOR2X1_68
*109 NOR2X1_174
*110 _620_
*111 OAI22X1_47
*112 AOI22X1_2
*113 AOI21X1_75
*114 OAI21X1_34
*115 OAI21X1_33
*116 AOI21X1_80
*117 AOI21X1_76
*118 NOR2X1_119
*119 AOI22X1_3
*120 OAI21X1_40
*121 OAI21X1_41
*122 _279_
*123 NOR3X1_52
*124 AND2X2_4
*125 NAND3X1_20
*126 NAND3X1_92
*127 NAND3X1_70
*128 NAND3X1_129
*129 NAND2X1_31
*130 NAND3X1_86
*131 NAND3X1_107
*132 NAND3X1_98
*133 _626_
*134 AOI22X1_11
*135 NAND3X1_56
*136 OAI21X1_48
*137 NAND3X1_78
*138 NAND3X1_34
*139 OAI21X1_39
*140 NOR2X1_118
*141 NAND3X1_28
*142 OAI21X1_35
*143 NAND3X1_33
*144 _239_
*145 NOR2X1_36
*146 NAND3X1_80
*147 NAND3X1_124
*148 NAND3X1_5
*149 NAND3X1_130
*150 NAND3X1_42
*151 NAND3X1_21
*152 NAND3X1_71
*153 NAND3X1_93
*154 NAND2X1_33
*155 _242_
*156 NOR2X1_37
*157 NAND3X1_117
*158 NAND3X1_121
*159 NAND3X1_44
*160 NAND3X1_83
*161 NAND3X1_7
*162 NAND3X1_132
*163 NAND3X1_75
*164 NAND3X1_95
*165 NAND3X1_23
*166 _213_
*167 AOI21X1_63
*168 NAND3X1_54
*169 NAND3X1_61
*170 NAND3X1_60
*171 NAND3X1_51
*172 NAND3X1_122
*173 AND2X2_5
*174 NAND2X1_25
*175 NAND3X1_72
*176 _217_
*177 AOI21X1_64
*178 NAND3X1_49
*179 NAND3X1_2
*180 NAND3X1_73
*181 NAND2X1_26
*182 AND2X2_6
*183 NAND3X1_52
*184 NAND3X1_59
*185 NAND3X1_62
*186 _630_
*187 NOR2X1_109
*188 NAND3X1_31
*189 NAND3X1_38
*190 NAND3X1_37
*191 INVX1_57
*192 NAND2X1_67
*193 AOI21X1_76
*194 NAND2X1_85
*195 AND2X2_7
*196 _641_
*197 NOR2X1_115
*198 AND2X2_8
*199 NAND3X1_45
*200 NAND2X1_5
*201 NAND3X1_1
*202 OAI21X1_36
*203 OAI21X1_38
*204 OAI21X1_37
*205 MUX2X1_105
*206 _692__bF_buf5
*207 BUFX4_72
*208 MUX2X1_190
*209 AOI21X1_23
*210 AOI21X1_2
*211 AOI21X1_12
*212 MUX2X1_186
*213 AOI21X1_1
*214 MUX2X1_142
*215 MUX2X1_137
*216 _751_
*217 NOR2X1_123
*218 AOI21X1_3
*219 NOR2X1_127
*220 NOR2X1_126
*221 AOI21X1_2
*222 AOI21X1_81
*223 NOR2X1_125
*224 NOR2X1_124
*225 AOI21X1_78
*226 _694__bF_buf2
*227 BUFX4_99
*228 AOI21X1_3
*229 MUX2X1_187
*230 MUX2X1_156
*231 AOI21X1_38
*232 MUX2X1_160
*233 AOI21X1_33
*234 MUX2X1_125
*235 AOI21X1_7
*236 _686__bF_buf6
*237 BUFX4_80
*238 MUX2X1_109
*239 MUX2X1_113
*240 AOI21X1_17
*241 MUX2X1_166
*242 MUX2X1_183
*243 AOI21X1_4
*244 MUX2X1_170
*245 MUX2X1_144
*246 _763_
*247 NOR2X1_129
*248 NOR2X1_133
*249 AOI21X1_6
*250 NOR2X1_131
*251 AOI21X1_4
*252 NOR2X1_132
*253 AOI21X1_5
*254 NOR2X1_134
*255 AOI21X1_7
*256 _690__bF_buf1
*257 BUFX4_68
*258 MUX2X1_123
*259 AOI21X1_81
*260 MUX2X1_185
*261 AOI21X1_5
*262 MUX2X1_114
*263 MUX2X1_173
*264 AOI21X1_18
*265 MUX2X1_102
*266 _692__bF_buf2
*267 BUFX4_76
*268 AOI21X1_6
*269 MUX2X1_115
*270 AOI21X1_19
*271 AOI21X1_56
*272 MUX2X1_172
*273 MUX2X1_150
*274 MUX2X1_124
*275 MUX2X1_120
*276 _686__bF_buf0
*277 BUFX4_87
*278 MUX2X1_135
*279 MUX2X1_179
*280 MUX2X1_188
*281 MUX2X1_129
*282 MUX2X1_100
*283 MUX2X1_161
*284 MUX2X1_175
*285 AOI21X1_8
*286 _811_
*287 NOR2X1_143
*288 NOR2X1_144
*289 AOI21X1_8
*290 AOI21X1_10
*291 NOR2X1_146
*292 NOR2X1_145
*293 AOI21X1_9
*294 NOR2X1_147
*295 AOI21X1_11
*296 _690__bF_buf2
*297 BUFX4_67
*298 MUX2X1_189
*299 MUX2X1_163
*300 MUX2X1_110
*301 MUX2X1_145
*302 AOI21X1_9
*303 MUX2X1_176
*304 MUX2X1_167
*305 MUX2X1_171
*306 _692__bF_buf4
*307 BUFX4_74
*308 MUX2X1_168
*309 MUX2X1_181
*310 MUX2X1_177
*311 MUX2X1_164
*312 AOI21X1_10
*313 MUX2X1_146
*314 MUX2X1_111
*315 MUX2X1_103
*316 _694__bF_buf3
*317 BUFX4_98
*318 MUX2X1_147
*319 MUX2X1_174
*320 MUX2X1_169
*321 MUX2X1_182
*322 MUX2X1_152
*323 MUX2X1_104
*324 MUX2X1_165
*325 AOI21X1_11
*326 _686__bF_buf5
*327 BUFX4_81
*328 AOI21X1_13
*329 MUX2X1_106
*330 MUX2X1_148
*331 MUX2X1_157
*332 MUX2X1_162
*333 MUX2X1_79
*334 AOI21X1_34
*335 MUX2X1_117
*336 _816_
*337 NOR2X1_148
*338 AOI21X1_15
*339 NOR2X1_151
*340 AOI21X1_14
*341 NOR2X1_150
*342 NOR2X1_149
*343 NOR2X1_153
*344 AOI21X1_16
*345 AOI21X1_13
*346 _690__bF_buf0
*347 BUFX4_69
*348 MUX2X1_90
*349 AOI21X1_45
*350 MUX2X1_1
*351 MUX2X1_149
*352 AOI21X1_14
*353 MUX2X1_158
*354 MUX2X1_154
*355 MUX2X1_119
*356 _692__bF_buf0
*357 BUFX4_78
*358 MUX2X1_184
*359 MUX2X1_107
*360 AOI21X1_37
*361 MUX2X1_101
*362 MUX2X1_159
*363 AOI21X1_15
*364 AOI21X1_32
*365 MUX2X1_155
*366 _694__bF_buf1
*367 BUFX4_100
*368 MUX2X1_108
*369 MUX2X1_118
*370 MUX2X1_2
*371 AOI21X1_67
*372 MUX2X1_121
*373 AOI21X1_20
*374 AOI21X1_16
*375 MUX2X1_116
*376 _837_
*377 NOR2X1_157
*378 NOR2X1_158
*379 AOI21X1_17
*380 AOI21X1_20
*381 NOR2X1_161
*382 AOI21X1_19
*383 NOR2X1_160
*384 NOR2X1_159
*385 AOI21X1_18
*386 _694__bF_buf0
*387 BUFX4_101
*388 MUX2X1_53
*389 AOI21X1_21
*390 AOI21X1_22
*391 MUX2X1_66
*392 MUX2X1_58
*393 MUX2X1_62
*394 MUX2X1_16
*395 AOI21X1_27
*396 _686__bF_buf3
*397 BUFX4_83
*398 MUX2X1_122
*399 AOI21X1_78
*400 AOI21X1_30
*401 MUX2X1_153
*402 MUX2X1_15
*403 AOI21X1_24
*404 AOI21X1_35
*405 MUX2X1_54
*406 _901_
*407 NOR2X1_177
*408 AOI21X1_27
*409 NOR2X1_181
*410 NOR2X1_179
*411 AOI21X1_25
*412 NOR2X1_180
*413 NOR2X1_178
*414 AOI21X1_26
*415 AOI21X1_24
*416 _690__bF_buf4
*417 BUFX4_65
*418 MUX2X1_51
*419 MUX2X1_60
*420 MUX2X1_55
*421 AOI21X1_28
*422 AOI21X1_31
*423 AOI21X1_36
*424 AOI21X1_25
*425 AOI21X1_40
*426 _692__bF_buf7
*427 BUFX4_70
*428 MUX2X1_6
*429 MUX2X1_65
*430 MUX2X1_194
*431 AOI21X1_29
*432 AOI21X1_26
*433 MUX2X1_61
*434 MUX2X1_52
*435 MUX2X1_22
*436 _911_
*437 NOR2X1_186
*438 NOR2X1_189
*439 AOI21X1_32
*440 NOR2X1_187
*441 AOI21X1_30
*442 NOR2X1_190
*443 AOI21X1_33
*444 NOR2X1_188
*445 AOI21X1_31
*446 _738_
*447 NOR2X1_68
*448 AOI21X1_56
*449 AOI21X1_45
*450 NOR2X1_90
*451 AOI21X1_67
*452 NOR2X1_79
*453 AOI21X1_34
*454 NOR2X1_113
*455 NOR2X1_101
*456 _916_
*457 NOR2X1_191
*458 AOI21X1_38
*459 AOI21X1_35
*460 NOR2X1_192
*461 AOI21X1_37
*462 NOR2X1_194
*463 AOI21X1_36
*464 NOR2X1_193
*465 NOR2X1_195
*466 _686__bF_buf2
*467 BUFX4_85
*468 MUX2X1_50
*469 MUX2X1_63
*470 MUX2X1_59
*471 MUX2X1_17
*472 AOI21X1_54
*473 AOI21X1_39
*474 AOI21X1_43
*475 AOI21X1_46
*476 _72_
*477 NOR2X1_198
*478 AOI21X1_41
*479 NOR2X1_201
*480 NOR2X1_199
*481 AOI21X1_39
*482 AOI21X1_40
*483 NOR2X1_200
*484 AOI21X1_42
*485 NOR2X1_202
*486 _692__bF_buf6
*487 BUFX4_71
*488 MUX2X1_19
*489 MUX2X1_27
*490 AOI21X1_48
*491 MUX2X1_31
*492 MUX2X1_29
*493 MUX2X1_56
*494 AOI21X1_41
*495 MUX2X1_25
*496 _694__bF_buf4
*497 BUFX4_97
*498 AOI21X1_51
*499 AOI21X1_44
*500 AOI21X1_49
*501 AOI21X1_42
*502 AOI21X1_55
*503 AOI21X1_58
*504 AOI21X1_53
*505 MUX2X1_20
*506 _82_
*507 NOR2X1_206
*508 NOR2X1_3
*509 AOI21X1_49
*510 NOR2X1_6
*511 AOI21X1_46
*512 AOI21X1_47
*513 NOR2X1_4
*514 NOR2X1_5
*515 AOI21X1_48
*516 _690__bF_buf6
*517 BUFX4_63
*518 MUX2X1_18
*519 MUX2X1_30
*520 AOI21X1_47
*521 MUX2X1_28
*522 MUX2X1_26
*523 MUX2X1_64
*524 MUX2X1_23
*525 MUX2X1_21
*526 _686__bF_buf7
*527 BUFX4_79
*528 MUX2X1_83
*529 MUX2X1_96
*530 MUX2X1_8
*531 AOI21X1_50
*532 MUX2X1_192
*533 MUX2X1_11
*534 AOI21X1_52
*535 AOI21X1_57
*536 _692__bF_buf3
*537 BUFX4_75
*538 MUX2X1_85
*539 MUX2X1_70
*540 MUX2X1_94
*541 AOI21X1_59
*542 MUX2X1_98
*543 MUX2X1_89
*544 MUX2X1_74
*545 MUX2X1_14
*546 _692__bF_buf1
*547 BUFX4_77
*548 MUX2X1_48
*549 MUX2X1_34
*550 MUX2X1_39
*551 MUX2X1_10
*552 AOI21X1_60
*553 MUX2X1_128
*554 MUX2X1_133
*555 MUX2X1_43
*556 _919__5_
*557 DFFSR_232
*558 BUFX2_9
*559 NAND2X1_87
*560 NOR2X1_116
*561 OAI21X1_38
*562 NOR2X1_171
*563 AOI21X1_75
*564 INVX1_140
*565 OAI21X1_12
*566 _636_
*567 NOR2X1_110
*568 NAND3X1_30
*569 NAND3X1_31
*570 NAND3X1_28
*571 OAI21X1_34
*572 NAND3X1_37
*573 NAND3X1_34
*574 AOI21X1_76
*575 OAI21X1_41
*576 _919__0_
*577 DFFSR_1
*578 BUFX2_4
*579 NAND3X1_33
*580 OAI21X1_43
*581 OAI21X1_34
*582 NAND2X1_82
*583 NOR2X1_109
*584 INVX2_4
*585 NOR2X1_1
*586 _919__1_
*587 DFFSR_112
*588 BUFX2_5
*589 NOR2X1_109
*590 OAI21X1_45
*591 NAND2X1_82
*592 NAND3X1_36
*593 OAI21X1_39
*594 NOR2X1_152
*595 INVX2_5
*596 _690_
*597 INVX8_1
*598 BUFX4_63
*599 BUFX4_64
*600 BUFX4_61
*601 BUFX4_69
*602 BUFX4_68
*603 BUFX4_65
*604 BUFX4_66
*605 BUFX4_67
*606 _690__bF_buf7
*607 BUFX4_61
*608 MUX2X1_9
*609 MUX2X1_42
*610 MUX2X1_47
*611 MUX2X1_33
*612 MUX2X1_5
*613 MUX2X1_57
*614 MUX2X1_193
*615 MUX2X1_12
*616 _690__bF_buf5
*617 BUFX4_64
*618 MUX2X1_81
*619 MUX2X1_77
*620 MUX2X1_73
*621 MUX2X1_88
*622 MUX2X1_69
*623 MUX2X1_84
*624 MUX2X1_97
*625 MUX2X1_93
*626 _690__bF_buf3
*627 BUFX4_66
*628 MUX2X1_140
*629 MUX2X1_24
*630 MUX2X1_38
*631 MUX2X1_132
*632 MUX2X1_127
*633 MUX2X1_136
*634 MUX2X1_141
*635 MUX2X1_180
*636 _692_
*637 INVX8_2
*638 BUFX4_70
*639 BUFX4_76
*640 BUFX4_78
*641 BUFX4_77
*642 BUFX4_72
*643 BUFX4_74
*644 BUFX4_75
*645 BUFX4_71
*646 _686_
*647 INVX8_4
*648 BUFX4_86
*649 BUFX4_79
*650 BUFX4_83
*651 BUFX4_85
*652 BUFX4_80
*653 BUFX4_81
*654 BUFX4_87
*655 BUFX4_82
*656 _686__bF_buf4
*657 BUFX4_82
*658 MUX2X1_131
*659 MUX2X1_41
*660 MUX2X1_46
*661 MUX2X1_13
*662 MUX2X1_4
*663 MUX2X1_45
*664 MUX2X1_126
*665 MUX2X1_139
*666 _686__bF_buf1
*667 BUFX4_86
*668 MUX2X1_67
*669 MUX2X1_72
*670 MUX2X1_37
*671 MUX2X1_32
*672 MUX2X1_76
*673 MUX2X1_87
*674 MUX2X1_80
*675 MUX2X1_92
*676 _694_
*677 INVX8_3
*678 BUFX4_97
*679 BUFX4_96
*680 BUFX4_101
*681 BUFX4_99
*682 BUFX4_93
*683 BUFX4_100
*684 BUFX4_98
*685 BUFX4_94
*686 _694__bF_buf7
*687 BUFX4_93
*688 MUX2X1_112
*689 MUX2X1_138
*690 MUX2X1_151
*691 MUX2X1_191
*692 MUX2X1_178
*693 MUX2X1_143
*694 MUX2X1_35
*695 MUX2X1_68
*696 _694__bF_buf6
*697 BUFX4_94
*698 MUX2X1_7
*699 MUX2X1_134
*700 MUX2X1_130
*701 MUX2X1_36
*702 MUX2X1_49
*703 MUX2X1_44
*704 MUX2X1_3
*705 MUX2X1_40
*706 _694__bF_buf5
*707 BUFX4_96
*708 MUX2X1_91
*709 MUX2X1_99
*710 MUX2X1_78
*711 MUX2X1_86
*712 MUX2X1_95
*713 MUX2X1_82
*714 MUX2X1_71
*715 MUX2X1_75
*716 _223_
*717 NOR2X1_29
*718 NAND3X1_12
*719 NAND2X1_70
*720 NAND2X1_19
*721 NAND2X1_52
*722 NAND3X1_76
*723 NAND3X1_25
*724 NAND3X1_96
*725 NAND3X1_3
*726 _260_
*727 NOR2X1_44
*728 NAND3X1_113
*729 NAND3X1_74
*730 NAND3X1_22
*731 NAND3X1_131
*732 NAND3X1_94
*733 NAND2X1_28
*734 NAND2X1_48
*735 NAND3X1_101
*736 _919__2_
*737 DFFSR_199
*738 BUFX2_6
*739 NOR2X1_108
*740 NAND2X1_83
*741 NAND3X1_67
*742 AOI21X1_79
*743 NOR2X1_13
*744 INVX2_3
*745 rst_n_hier0_bF_buf5
*746 BUFX4_3
*747 BUFX4_45
*748 BUFX4_12
*749 BUFX4_41
*750 BUFX4_20
*751 BUFX4_43
*752 BUFX4_14
*753 BUFX4_28
*754 clk_hier0_bF_buf2
*755 BUFX4_4
*756 CLKBUF1_32
*757 CLKBUF1_28
*758 CLKBUF1_22
*759 CLKBUF1_16
*760 CLKBUF1_24
*761 CLKBUF1_40
*762 CLKBUF1_26
*763 _233__bF_buf3
*764 BUFX4_5
*765 NAND2X1_62
*766 NAND3X1_14
*767 NAND3X1_15
*768 NAND3X1_12
*769 NAND2X1_70
*770 NAND3X1_40
*771 NAND2X1_22
*772 clk_hier0_bF_buf1
*773 BUFX4_9
*774 CLKBUF1_21
*775 CLKBUF1_7
*776 CLKBUF1_4
*777 CLKBUF1_39
*778 CLKBUF1_37
*779 CLKBUF1_5
*780 CLKBUF1_41
*781 clk_hier0_bF_buf0
*782 BUFX4_10
*783 CLKBUF1_12
*784 CLKBUF1_38
*785 CLKBUF1_36
*786 CLKBUF1_30
*787 CLKBUF1_18
*788 CLKBUF1_1
*789 CLKBUF1_13
*790 rst_n_hier0_bF_buf3
*791 BUFX4_29
*792 BUFX4_42
*793 BUFX4_16
*794 BUFX4_11
*795 BUFX4_31
*796 BUFX4_44
*797 BUFX4_32
*798 BUFX4_37
*799 rst_n_bF_buf41
*800 BUFX4_11
*801 DFFSR_68
*802 DFFSR_113
*803 DFFSR_214
*804 DFFSR_209
*805 DFFSR_207
*806 DFFSR_157
*807 DFFSR_90
*808 rst_n_bF_buf40
*809 BUFX4_12
*810 DFFSR_63
*811 DFFSR_59
*812 DFFSR_61
*813 DFFSR_60
*814 DFFSR_62
*815 DFFSR_69
*816 DFFSR_182
*817 rst_n_hier0_bF_buf1
*818 BUFX4_51
*819 BUFX4_23
*820 BUFX4_30
*821 BUFX4_13
*822 BUFX4_21
*823 BUFX4_46
*824 BUFX4_24
*825 BUFX4_50
*826 rst_n_bF_buf39
*827 BUFX4_13
*828 DFFSR_179
*829 DFFSR_208
*830 DFFSR_197
*831 DFFSR_195
*832 DFFSR_146
*833 DFFSR_201
*834 DFFSR_206
*835 rst_n_bF_buf38
*836 BUFX4_14
*837 DFFSR_118
*838 DFFSR_114
*839 DFFSR_126
*840 DFFSR_127
*841 DFFSR_129
*842 DFFSR_121
*843 DFFSR_2
*844 rst_n_hier0_bF_buf2
*845 BUFX4_40
*846 BUFX4_48
*847 BUFX4_52
*848 BUFX4_54
*849 BUFX4_15
*850 BUFX4_22
*851 BUFX4_53
*852 BUFX4_35
*853 rst_n_bF_buf37
*854 BUFX4_15
*855 DFFSR_273
*856 DFFSR_14
*857 DFFSR_228
*858 DFFSR_26
*859 DFFSR_220
*860 DFFSR_218
*861 DFFSR_229
*862 rst_n_bF_buf36
*863 BUFX4_16
*864 DFFSR_170
*865 DFFSR_56
*866 DFFSR_165
*867 DFFSR_167
*868 DFFSR_52
*869 DFFSR_119
*870 DFFSR_115
*871 rst_n_hier0_bF_buf4
*872 BUFX4_18
*873 BUFX4_17
*874 BUFX4_47
*875 BUFX4_33
*876 BUFX4_38
*877 BUFX4_26
*878 BUFX4_25
*879 BUFX4_27
*880 rst_n_bF_buf35
*881 BUFX4_17
*882 DFFSR_254
*883 DFFSR_174
*884 DFFSR_160
*885 DFFSR_89
*886 DFFSR_134
*887 DFFSR_158
*888 DFFSR_85
*889 rst_n_hier0_bF_buf0
*890 BUFX4_62
*891 BUFX4_39
*892 BUFX4_19
*893 BUFX4_55
*894 BUFX4_34
*895 BUFX4_49
*896 BUFX4_36
*897 BUFX4_56
*898 rst_n_bF_buf34
*899 BUFX4_19
*900 DFFSR_94
*901 DFFSR_163
*902 DFFSR_185
*903 DFFSR_183
*904 DFFSR_99
*905 DFFSR_102
*906 DFFSR_162
*907 rst_n_bF_buf33
*908 BUFX4_20
*909 DFFSR_108
*910 DFFSR_153
*911 DFFSR_105
*912 DFFSR_78
*913 DFFSR_46
*914 DFFSR_110
*915 DFFSR_75
*916 rst_n_bF_buf32
*917 BUFX4_21
*918 DFFSR_204
*919 DFFSR_191
*920 DFFSR_196
*921 DFFSR_200
*922 DFFSR_190
*923 DFFSR_101
*924 DFFSR_205
*925 rst_n_bF_buf31
*926 BUFX4_22
*927 DFFSR_219
*928 DFFSR_271
*929 DFFSR_210
*930 DFFSR_6
*931 DFFSR_32
*932 DFFSR_188
*933 DFFSR_225
*934 rst_n_bF_buf30
*935 BUFX4_23
*936 DFFSR_242
*937 DFFSR_237
*938 DFFSR_171
*939 DFFSR_123
*940 DFFSR_122
*941 DFFSR_244
*942 DFFSR_236
*943 rst_n_bF_buf29
*944 BUFX4_24
*945 DFFSR_49
*946 DFFSR_34
*947 DFFSR_44
*948 DFFSR_241
*949 DFFSR_124
*950 DFFSR_216
*951 DFFSR_249
*952 rst_n_bF_buf28
*953 BUFX4_25
*954 DFFSR_88
*955 DFFSR_15
*956 DFFSR_147
*957 DFFSR_91
*958 DFFSR_150
*959 DFFSR_133
*960 DFFSR_130
*961 rst_n_bF_buf27
*962 BUFX4_26
*963 DFFSR_17
*964 DFFSR_22
*965 DFFSR_87
*966 DFFSR_29
*967 DFFSR_20
*968 DFFSR_31
*969 DFFSR_16
*970 rst_n_bF_buf26
*971 BUFX4_27
*972 DFFSR_140
*973 DFFSR_142
*974 DFFSR_136
*975 DFFSR_131
*976 DFFSR_58
*977 DFFSR_141
*978 DFFSR_139
*979 rst_n_bF_buf25
*980 BUFX4_28
*981 DFFSR_120
*982 DFFSR_180
*983 DFFSR_64
*984 DFFSR_116
*985 DFFSR_111
*986 DFFSR_173
*987 DFFSR_128
*988 rst_n_bF_buf24
*989 BUFX4_30
*990 DFFSR_213
*991 DFFSR_57
*992 DFFSR_215
*993 DFFSR_211
*994 DFFSR_202
*995 DFFSR_217
*996 DFFSR_38
*997 rst_n_bF_buf23
*998 BUFX4_31
*999 DFFSR_40
*1000 DFFSR_36
*1001 DFFSR_47
*1002 DFFSR_33
*1003 DFFSR_212
*1004 DFFSR_168
*1005 DFFSR_79
*1006 rst_n_bF_buf22
*1007 BUFX4_32
*1008 DFFSR_232
*1009 DFFSR_189
*1010 DFFSR_221
*1011 DFFSR_192
*1012 DFFSR_112
*1013 DFFSR_135
*1014 DFFSR_198
*1015 rst_n_bF_buf21
*1016 BUFX4_33
*1017 DFFSR_222
*1018 DFFSR_18
*1019 DFFSR_30
*1020 DFFSR_28
*1021 DFFSR_226
*1022 DFFSR_227
*1023 DFFSR_4
*1024 rst_n_bF_buf20
*1025 BUFX4_34
*1026 DFFSR_24
*1027 DFFSR_181
*1028 DFFSR_132
*1029 DFFSR_55
*1030 DFFSR_137
*1031 DFFSR_138
*1032 DFFSR_51
*1033 rst_n_bF_buf19
*1034 BUFX4_35
*1035 DFFSR_255
*1036 DFFSR_261
*1037 DFFSR_257
*1038 DFFSR_270
*1039 DFFSR_268
*1040 DFFSR_5
*1041 DFFSR_3
*1042 clk_hier0_bF_buf5
*1043 BUFX4_73
*1044 CLKBUF1_34
*1045 CLKBUF1_2
*1046 CLKBUF1_17
*1047 CLKBUF1_23
*1048 CLKBUF1_27
*1049 CLKBUF1_31
*1050 CLKBUF1_42
*1051 clk_hier0_bF_buf4
*1052 BUFX4_84
*1053 CLKBUF1_19
*1054 CLKBUF1_11
*1055 CLKBUF1_25
*1056 CLKBUF1_29
*1057 CLKBUF1_8
*1058 CLKBUF1_15
*1059 CLKBUF1_10
*1060 clk_hier0_bF_buf3
*1061 BUFX4_95
*1062 CLKBUF1_20
*1063 CLKBUF1_3
*1064 CLKBUF1_9
*1065 CLKBUF1_6
*1066 CLKBUF1_14
*1067 CLKBUF1_35
*1068 CLKBUF1_33
*1069 _233__bF_buf4
*1070 BUFX4_105
*1071 NAND3X1_7
*1072 NAND3X1_83
*1073 NAND3X1_44
*1074 NAND3X1_79
*1075 NAND3X1_121
*1076 NAND3X1_81
*1077 NAND3X1_80
*1078 clk_bF_buf41
*1079 CLKBUF1_1
*1080 DFFSR_91
*1081 DFFSR_142
*1082 DFFSR_158
*1083 DFFSR_19
*1084 DFFSR_134
*1085 DFFSR_89
*1086 DFFSR_136
*1087 clk_bF_buf32
*1088 CLKBUF1_2
*1089 DFFSR_125
*1090 DFFSR_2
*1091 DFFSR_129
*1092 DFFSR_126
*1093 DFFSR_251
*1094 DFFSR_239
*1095 DFFSR_252
*1096 clk_bF_buf31
*1097 CLKBUF1_3
*1098 DFFSR_234
*1099 DFFSR_222
*1100 DFFSR_23
*1101 DFFSR_28
*1102 DFFSR_26
*1103 DFFSR_235
*1104 DFFSR_4
*1105 clk_bF_buf30
*1106 CLKBUF1_4
*1107 DFFSR_216
*1108 DFFSR_38
*1109 DFFSR_215
*1110 DFFSR_207
*1111 DFFSR_157
*1112 DFFSR_124
*1113 DFFSR_113
*1114 clk_bF_buf29
*1115 CLKBUF1_5
*1116 DFFSR_250
*1117 DFFSR_237
*1118 DFFSR_241
*1119 DFFSR_44
*1120 DFFSR_236
*1121 DFFSR_34
*1122 DFFSR_249
*1123 clk_bF_buf28
*1124 CLKBUF1_6
*1125 DFFSR_165
*1126 DFFSR_151
*1127 DFFSR_149
*1128 DFFSR_43
*1129 DFFSR_148
*1130 DFFSR_27
*1131 DFFSR_48
*1132 clk_bF_buf27
*1133 CLKBUF1_7
*1134 DFFSR_179
*1135 DFFSR_208
*1136 DFFSR_197
*1137 DFFSR_196
*1138 DFFSR_195
*1139 DFFSR_204
*1140 DFFSR_191
*1141 clk_bF_buf26
*1142 CLKBUF1_8
*1143 DFFSR_24
*1144 DFFSR_77
*1145 DFFSR_174
*1146 DFFSR_140
*1147 DFFSR_137
*1148 DFFSR_141
*1149 DFFSR_96
*1150 clk_bF_buf25
*1151 CLKBUF1_9
*1152 DFFSR_271
*1153 DFFSR_210
*1154 DFFSR_6
*1155 DFFSR_32
*1156 DFFSR_188
*1157 DFFSR_253
*1158 DFFSR_258
*1159 clk_bF_buf24
*1160 CLKBUF1_10
*1161 DFFSR_94
*1162 DFFSR_163
*1163 DFFSR_176
*1164 DFFSR_185
*1165 DFFSR_102
*1166 DFFSR_162
*1167 DFFSR_156
*1168 clk_bF_buf23
*1169 CLKBUF1_11
*1170 DFFSR_177
*1171 DFFSR_186
*1172 DFFSR_164
*1173 DFFSR_265
*1174 DFFSR_159
*1175 DFFSR_70
*1176 DFFSR_161
*1177 clk_bF_buf40
*1178 CLKBUF1_12
*1179 DFFSR_131
*1180 DFFSR_138
*1181 DFFSR_55
*1182 DFFSR_132
*1183 DFFSR_139
*1184 DFFSR_147
*1185 DFFSR_51
*1186 clk_bF_buf22
*1187 CLKBUF1_13
*1188 DFFSR_18
*1189 DFFSR_15
*1190 DFFSR_88
*1191 DFFSR_22
*1192 DFFSR_17
*1193 DFFSR_20
*1194 DFFSR_30
*1195 clk_bF_buf21
*1196 CLKBUF1_14
*1197 DFFSR_225
*1198 DFFSR_220
*1199 DFFSR_273
*1200 DFFSR_219
*1201 DFFSR_40
*1202 DFFSR_36
*1203 DFFSR_47
*1204 clk_bF_buf20
*1205 CLKBUF1_15
*1206 DFFSR_110
*1207 DFFSR_75
*1208 DFFSR_46
*1209 DFFSR_78
*1210 DFFSR_105
*1211 DFFSR_153
*1212 DFFSR_108
*1213 clk_bF_buf19
*1214 CLKBUF1_16
*1215 DFFSR_267
*1216 DFFSR_259
*1217 DFFSR_264
*1218 DFFSR_199
*1219 DFFSR_1
*1220 DFFSR_262
*1221 DFFSR_194
*1222 clk_bF_buf39
*1223 CLKBUF1_23
*1224 DFFSR_103
*1225 DFFSR_65
*1226 DFFSR_71
*1227 DFFSR_73
*1228 DFFSR_69
*1229 DFFSR_106
*1230 DFFSR_109
*1231 clk_bF_buf38
*1232 CLKBUF1_34
*1233 DFFSR_180
*1234 DFFSR_242
*1235 DFFSR_171
*1236 DFFSR_123
*1237 DFFSR_122
*1238 DFFSR_244
*1239 DFFSR_173
*1240 clk_bF_buf37
*1241 CLKBUF1_38
*1242 DFFSR_130
*1243 DFFSR_133
*1244 DFFSR_233
*1245 DFFSR_172
*1246 DFFSR_58
*1247 DFFSR_181
*1248 DFFSR_150
*1249 clk_bF_buf36
*1250 CLKBUF1_39
*1251 DFFSR_214
*1252 DFFSR_209
*1253 DFFSR_213
*1254 DFFSR_57
*1255 DFFSR_200
*1256 DFFSR_101
*1257 DFFSR_205
*1258 clk_bF_buf35
*1259 CLKBUF1_40
*1260 DFFSR_260
*1261 DFFSR_266
*1262 DFFSR_263
*1263 DFFSR_270
*1264 DFFSR_275
*1265 DFFSR_9
*1266 DFFSR_274
*1267 clk_bF_buf34
*1268 CLKBUF1_41
*1269 DFFSR_211
*1270 DFFSR_202
*1271 DFFSR_206
*1272 DFFSR_201
*1273 DFFSR_146
*1274 DFFSR_217
*1275 DFFSR_45
*1276 clk_bF_buf33
*1277 CLKBUF1_42
*1278 DFFSR_114
*1279 DFFSR_127
*1280 DFFSR_121
*1281 DFFSR_128
*1282 DFFSR_60
*1283 DFFSR_64
*1284 DFFSR_182
*1285 _621_
*1286 NAND2X1_82
*1287 OAI21X1_44
*1288 INVX1_141
*1289 OAI21X1_33
*1290 NOR2X1_115
*1291 OAI21X1_46
*1292 NOR2X1_24
*1293 NOR2X1_135
*1294 _663_
*1295 INVX2_4
*1296 NOR2X1_118
*1297 NAND3X1_78
*1298 NAND3X1_32
*1299 OAI21X1_41
*1300 NAND3X1_34
*1301 OAI21X1_40
*1302 NOR2X1_152
*1303 _639_
*1304 NOR2X1_111
*1305 OAI21X1_36
*1306 OAI21X1_1
*1307 OAI21X1_43
*1308 NAND2X1_4
*1309 NAND3X1_45
*1310 NAND3X1_1
*1311 NAND2X1_3
*1312 _276_
*1313 NOR3X1_51
*1314 NOR2X1_54
*1315 NAND2X1_30
*1316 NAND3X1_128
*1317 NAND3X1_69
*1318 NAND3X1_19
*1319 NAND3X1_91
*1320 NAND2X1_42
*1321 _301_
*1322 NAND2X1_40
*1323 NOR3X1_4
*1324 NOR3X1_6
*1325 NOR2X1_52
*1326 NOR3X1_29
*1327 NOR2X1_50
*1328 NOR3X1_19
*1329 NOR3X1_22
*1330 _622_
*1331 NAND2X1_83
*1332 OAI21X1_33
*1333 NAND2X1_96
*1334 NOR2X1_112
*1335 NOR2X1_163
*1336 NOR2X1_185
*1337 NOR2X1_115
*1338 OAI21X1_46
*1339 _205_
*1340 AOI21X1_61
*1341 AND2X2_1
*1342 NAND3X1_89
*1343 NAND2X1_27
*1344 NAND3X1_64
*1345 NAND3X1_57
*1346 NAND2X1_39
*1347 _210_
*1348 AOI21X1_62
*1349 NAND3X1_63
*1350 NAND2X1_47
*1351 NAND3X1_58
*1352 NAND3X1_40
*1353 NAND3X1_111
*1354 AND2X2_3
*1355 _233__bF_buf1
*1356 BUFX4_7
*1357 NAND2X1_48
*1358 AND2X2_4
*1359 NAND3X1_108
*1360 NAND3X1_86
*1361 NAND3X1_87
*1362 NAND3X1_107
*1363 _687_
*1364 NOR2X1_120
*1365 NAND2X1_2
*1366 NAND2X1_89
*1367 NAND2X1_23
*1368 NAND2X1_78
*1369 INVX4_1
*1370 AND2X2_8
*1371 _907_
*1372 NOR2X1_182
*1373 MUX2X1_15
*1374 MUX2X1_16
*1375 NOR2X1_184
*1376 AOI21X1_29
*1377 AOI21X1_28
*1378 NOR2X1_183
*1379 _77_
*1380 NOR2X1_203
*1381 MUX2X1_22
*1382 NOR2X1_205
*1383 AOI21X1_44
*1384 AOI21X1_43
*1385 MUX2X1_21
*1386 NOR2X1_204
*1387 _87_
*1388 NOR2X1_7
*1389 MUX2X1_25
*1390 NOR2X1_9
*1391 AOI21X1_51
*1392 MUX2X1_23
*1393 NOR2X1_8
*1394 AOI21X1_50
*1395 _92_
*1396 NOR2X1_10
*1397 MUX2X1_26
*1398 AOI21X1_53
*1399 NOR2X1_12
*1400 MUX2X1_27
*1401 NOR2X1_11
*1402 AOI21X1_52
*1403 _97_
*1404 NOR2X1_14
*1405 MUX2X1_28
*1406 AOI21X1_55
*1407 NOR2X1_16
*1408 MUX2X1_29
*1409 NOR2X1_15
*1410 AOI21X1_54
*1411 _102_
*1412 NOR2X1_17
*1413 MUX2X1_30
*1414 NOR2X1_19
*1415 NOR2X1_18
*1416 AOI21X1_58
*1417 MUX2X1_31
*1418 AOI21X1_57
*1419 _919__3_
*1420 DFFSR_210
*1421 BUFX2_7
*1422 NOR2X1_122
*1423 NOR2X1_108
*1424 NAND2X1_83
*1425 AOI21X1_80
*1426 INVX1_142
*1427 _919__4_
*1428 DFFSR_221
*1429 BUFX2_8
*1430 INVX1_136
*1431 NAND2X1_87
*1432 NOR2X1_116
*1433 NOR2X1_140
*1434 NAND3X1_27
*1435 rst_n
*1436 BUFX4_3
*1437 BUFX4_18
*1438 BUFX4_51
*1439 BUFX4_29
*1440 BUFX4_40
*1441 BUFX4_62
*1442 clk
*1443 BUFX4_10
*1444 BUFX4_4
*1445 BUFX4_9
*1446 BUFX4_95
*1447 BUFX4_73
*1448 BUFX4_84
*1449 _233__bF_buf2
*1450 BUFX4_6
*1451 NAND3X1_51
*1452 NAND2X1_24
*1453 NAND3X1_120
*1454 NAND2X1_42
*1455 NAND2X1_44
*1456 NAND3X1_52
*1457 _233__bF_buf0
*1458 BUFX4_8
*1459 NAND3X1_41
*1460 NAND3X1_5
*1461 NAND3X1_123
*1462 NAND3X1_124
*1463 NAND3X1_6
*1464 NAND3X1_42
*1465 rst_n_bF_buf18
*1466 BUFX4_36
*1467 DFFSR_54
*1468 DFFSR_107
*1469 DFFSR_82
*1470 DFFSR_154
*1471 DFFSR_152
*1472 DFFSR_77
*1473 rst_n_bF_buf17
*1474 BUFX4_37
*1475 DFFSR_1
*1476 DFFSR_199
*1477 DFFSR_193
*1478 DFFSR_187
*1479 DFFSR_262
*1480 DFFSR_194
*1481 rst_n_bF_buf16
*1482 BUFX4_38
*1483 DFFSR_23
*1484 DFFSR_172
*1485 DFFSR_151
*1486 DFFSR_233
*1487 DFFSR_234
*1488 DFFSR_235
*1489 rst_n_bF_buf15
*1490 BUFX4_39
*1491 DFFSR_70
*1492 DFFSR_81
*1493 DFFSR_80
*1494 DFFSR_83
*1495 DFFSR_84
*1496 DFFSR_243
*1497 rst_n_bF_buf14
*1498 BUFX4_41
*1499 DFFSR_35
*1500 DFFSR_178
*1501 DFFSR_155
*1502 DFFSR_50
*1503 DFFSR_53
*1504 DFFSR_117
*1505 rst_n_bF_buf13
*1506 BUFX4_42
*1507 DFFSR_148
*1508 DFFSR_37
*1509 DFFSR_48
*1510 DFFSR_27
*1511 DFFSR_43
*1512 DFFSR_149
*1513 rst_n_bF_buf12
*1514 BUFX4_43
*1515 DFFSR_103
*1516 DFFSR_65
*1517 DFFSR_71
*1518 DFFSR_73
*1519 DFFSR_106
*1520 DFFSR_109
*1521 rst_n_bF_buf11
*1522 BUFX4_44
*1523 DFFSR_238
*1524 DFFSR_42
*1525 DFFSR_169
*1526 DFFSR_41
*1527 DFFSR_240
*1528 DFFSR_166
*1529 rst_n_bF_buf10
*1530 BUFX4_45
*1531 DFFSR_76
*1532 DFFSR_104
*1533 DFFSR_13
*1534 DFFSR_97
*1535 DFFSR_66
*1536 DFFSR_74
*1537 rst_n_bF_buf9
*1538 BUFX4_46
*1539 DFFSR_245
*1540 DFFSR_39
*1541 DFFSR_247
*1542 DFFSR_248
*1543 DFFSR_203
*1544 DFFSR_45
*1545 rst_n_bF_buf8
*1546 BUFX4_47
*1547 DFFSR_100
*1548 DFFSR_86
*1549 DFFSR_21
*1550 DFFSR_92
*1551 DFFSR_19
*1552 DFFSR_93
*1553 rst_n_bF_buf7
*1554 BUFX4_48
*1555 DFFSR_230
*1556 DFFSR_223
*1557 DFFSR_25
*1558 DFFSR_224
*1559 DFFSR_231
*1560 DFFSR_12
*1561 rst_n_bF_buf6
*1562 BUFX4_49
*1563 DFFSR_176
*1564 DFFSR_98
*1565 DFFSR_95
*1566 DFFSR_156
*1567 DFFSR_184
*1568 DFFSR_161
*1569 rst_n_bF_buf5
*1570 BUFX4_50
*1571 DFFSR_251
*1572 DFFSR_239
*1573 DFFSR_250
*1574 DFFSR_246
*1575 DFFSR_125
*1576 DFFSR_252
*1577 rst_n_bF_buf4
*1578 BUFX4_52
*1579 DFFSR_256
*1580 DFFSR_10
*1581 DFFSR_7
*1582 DFFSR_272
*1583 DFFSR_11
*1584 DFFSR_8
*1585 rst_n_bF_buf3
*1586 BUFX4_53
*1587 DFFSR_269
*1588 DFFSR_275
*1589 DFFSR_9
*1590 DFFSR_274
*1591 DFFSR_263
*1592 DFFSR_260
*1593 rst_n_bF_buf2
*1594 BUFX4_54
*1595 DFFSR_264
*1596 DFFSR_258
*1597 DFFSR_253
*1598 DFFSR_266
*1599 DFFSR_259
*1600 DFFSR_267
*1601 rst_n_bF_buf1
*1602 BUFX4_55
*1603 DFFSR_164
*1604 DFFSR_186
*1605 DFFSR_143
*1606 DFFSR_175
*1607 DFFSR_144
*1608 DFFSR_177
*1609 rst_n_bF_buf0
*1610 BUFX4_56
*1611 DFFSR_96
*1612 DFFSR_159
*1613 DFFSR_72
*1614 DFFSR_145
*1615 DFFSR_67
*1616 DFFSR_265
*1617 _197__bF_buf3
*1618 BUFX4_57
*1619 NAND3X1_58
*1620 NAND3X1_64
*1621 NAND3X1_61
*1622 NAND3X1_60
*1623 NAND3X1_62
*1624 NAND3X1_57
*1625 _197__bF_buf2
*1626 BUFX4_58
*1627 NAND3X1_63
*1628 NAND3X1_105
*1629 NAND3X1_104
*1630 NAND2X1_20
*1631 NAND2X1_21
*1632 NAND2X1_19
*1633 _197__bF_buf1
*1634 BUFX4_59
*1635 INVX2_2
*1636 NAND3X1_68
*1637 OAI21X1_50
*1638 NAND3X1_2
*1639 NAND3X1_122
*1640 NAND2X1_64
*1641 _197__bF_buf0
*1642 BUFX4_60
*1643 OAI21X1_49
*1644 NAND3X1_99
*1645 NAND3X1_59
*1646 NAND3X1_101
*1647 NAND3X1_103
*1648 NAND3X1_98
*1649 _263__bF_buf4
*1650 BUFX4_88
*1651 NAND2X1_54
*1652 NAND3X1_130
*1653 NAND2X1_52
*1654 NAND3X1_21
*1655 NAND3X1_71
*1656 NAND3X1_93
*1657 clk_bF_buf18
*1658 CLKBUF1_17
*1659 DFFSR_97
*1660 DFFSR_59
*1661 DFFSR_61
*1662 DFFSR_13
*1663 DFFSR_104
*1664 DFFSR_63
*1665 clk_bF_buf17
*1666 CLKBUF1_18
*1667 DFFSR_254
*1668 DFFSR_86
*1669 DFFSR_93
*1670 DFFSR_100
*1671 DFFSR_85
*1672 DFFSR_92
*1673 clk_bF_buf16
*1674 CLKBUF1_19
*1675 DFFSR_243
*1676 DFFSR_152
*1677 DFFSR_82
*1678 DFFSR_83
*1679 DFFSR_80
*1680 DFFSR_84
*1681 clk_bF_buf15
*1682 CLKBUF1_20
*1683 DFFSR_170
*1684 DFFSR_56
*1685 DFFSR_167
*1686 DFFSR_41
*1687 DFFSR_42
*1688 DFFSR_169
*1689 clk_bF_buf14
*1690 CLKBUF1_21
*1691 DFFSR_90
*1692 DFFSR_68
*1693 DFFSR_198
*1694 DFFSR_190
*1695 DFFSR_135
*1696 DFFSR_192
*1697 clk_bF_buf13
*1698 CLKBUF1_22
*1699 DFFSR_269
*1700 DFFSR_11
*1701 DFFSR_272
*1702 DFFSR_256
*1703 DFFSR_10
*1704 DFFSR_8
*1705 clk_bF_buf12
*1706 CLKBUF1_24
*1707 DFFSR_112
*1708 DFFSR_221
*1709 DFFSR_189
*1710 DFFSR_232
*1711 DFFSR_193
*1712 DFFSR_187
*1713 clk_bF_buf11
*1714 CLKBUF1_25
*1715 DFFSR_35
*1716 DFFSR_154
*1717 DFFSR_107
*1718 DFFSR_54
*1719 DFFSR_81
*1720 DFFSR_53
*1721 clk_bF_buf10
*1722 CLKBUF1_26
*1723 DFFSR_227
*1724 DFFSR_223
*1725 DFFSR_226
*1726 DFFSR_230
*1727 DFFSR_224
*1728 DFFSR_231
*1729 clk_bF_buf9
*1730 CLKBUF1_27
*1731 DFFSR_50
*1732 DFFSR_178
*1733 DFFSR_76
*1734 DFFSR_66
*1735 DFFSR_74
*1736 DFFSR_62
*1737 clk_bF_buf8
*1738 CLKBUF1_28
*1739 DFFSR_5
*1740 DFFSR_268
*1741 DFFSR_255
*1742 DFFSR_261
*1743 DFFSR_257
*1744 DFFSR_3
*1745 clk_bF_buf7
*1746 CLKBUF1_29
*1747 DFFSR_143
*1748 DFFSR_175
*1749 DFFSR_144
*1750 DFFSR_145
*1751 DFFSR_67
*1752 DFFSR_72
*1753 clk_bF_buf6
*1754 CLKBUF1_30
*1755 DFFSR_160
*1756 DFFSR_184
*1757 DFFSR_95
*1758 DFFSR_98
*1759 DFFSR_99
*1760 DFFSR_183
*1761 clk_bF_buf5
*1762 CLKBUF1_31
*1763 DFFSR_117
*1764 DFFSR_118
*1765 DFFSR_155
*1766 DFFSR_120
*1767 DFFSR_116
*1768 DFFSR_111
*1769 clk_bF_buf4
*1770 CLKBUF1_32
*1771 DFFSR_12
*1772 DFFSR_7
*1773 DFFSR_14
*1774 DFFSR_228
*1775 DFFSR_218
*1776 DFFSR_229
*1777 clk_bF_buf3
*1778 CLKBUF1_33
*1779 DFFSR_79
*1780 DFFSR_49
*1781 DFFSR_212
*1782 DFFSR_168
*1783 DFFSR_33
*1784 DFFSR_37
*1785 clk_bF_buf2
*1786 CLKBUF1_35
*1787 DFFSR_238
*1788 DFFSR_115
*1789 DFFSR_119
*1790 DFFSR_52
*1791 DFFSR_166
*1792 DFFSR_240
*1793 clk_bF_buf1
*1794 CLKBUF1_36
*1795 DFFSR_21
*1796 DFFSR_31
*1797 DFFSR_16
*1798 DFFSR_87
*1799 DFFSR_29
*1800 DFFSR_25
*1801 clk_bF_buf0
*1802 CLKBUF1_37
*1803 DFFSR_246
*1804 DFFSR_248
*1805 DFFSR_247
*1806 DFFSR_39
*1807 DFFSR_245
*1808 DFFSR_203
*1809 _201_
*1810 NAND2X1_17
*1811 NOR3X1_2
*1812 NAND3X1_89
*1813 NOR3X1_52
*1814 NOR2X1_42
*1815 NOR3X1_9
*1816 NOR3X1_51
*1817 _246_
*1818 NOR2X1_38
*1819 NAND2X1_64
*1820 NAND3X1_120
*1821 NAND3X1_81
*1822 NAND2X1_24
*1823 NAND3X1_115
*1824 NAND2X1_58
*1825 _237_
*1826 NOR2X1_34
*1827 NAND2X1_54
*1828 NAND2X1_35
*1829 NAND3X1_41
*1830 NAND3X1_6
*1831 NAND3X1_79
*1832 NAND3X1_123
*1833 _211_
*1834 NAND3X1_111
*1835 NOR3X1_36
*1836 NOR2X1_69
*1837 NOR3X1_16
*1838 NOR3X1_34
*1839 NOR3X1_12
*1840 NOR3X1_39
*1841 _644_
*1842 NAND2X1_86
*1843 INVX1_138
*1844 NAND2X1_46
*1845 NOR2X1_45
*1846 NOR2X1_32
*1847 AND2X2_2
*1848 addr_after_5_
*1849 AOI22X1_2
*1850 DFFSR_232
*1851 NAND3X1_48
*1852 NOR2X1_32
*1853 NAND2X1_46
*1854 AND2X2_2
*1855 _274_
*1856 AND2X2_2
*1857 BUFX4_103
*1858 BUFX4_104
*1859 BUFX4_1
*1860 BUFX4_102
*1861 BUFX4_2
*1862 _701_
*1863 NOR2X1_130
*1864 NOR2X1_141
*1865 AOI21X1_1
*1866 MUX2X1_151
*1867 MUX2X1_129
*1868 MUX2X1_140
*1869 _718_
*1870 NOR2X1_196
*1871 MUX2X1_24
*1872 MUX2X1_13
*1873 NOR2X1_2
*1874 MUX2X1_35
*1875 AOI21X1_12
*1876 _892_
*1877 NOR2X1_172
*1878 MUX2X1_9
*1879 MUX2X1_8
*1880 NOR2X1_173
*1881 AOI21X1_21
*1882 MUX2X1_10
*1883 _897_
*1884 NOR2X1_175
*1885 NOR2X1_176
*1886 AOI21X1_22
*1887 MUX2X1_14
*1888 MUX2X1_11
*1889 MUX2X1_12
*1890 _727_
*1891 NOR2X1_35
*1892 MUX2X1_46
*1893 NOR2X1_46
*1894 AOI21X1_23