*SPICE netlist created from BLIF module nibble_mem by blif2BSpice
.include /usr/share/qflow/tech/osu035/osu035_stdcells.sp
.subckt nibble_mem vdd gnd clk rst_n din[0] din[1] din[2] din[3] store next prev dout[0] dout[1] dout[2] dout[3] addr[0] addr[1] addr[2] addr[3] addr[4] addr[5] 
XAND2X2_1 vdd gnd _232_ _205_ _273_ AND2X2
XAND2X2_2 vdd gnd _644_ addr_after_5_ _274_ AND2X2
XAND2X2_3 vdd gnd _232_ _210_ _289_ AND2X2
XAND2X2_4 vdd gnd _279_ _233__bF_buf1 _308_ AND2X2
XAND2X2_5 vdd gnd _232_ _213_ _344_ AND2X2
XAND2X2_6 vdd gnd _232_ _217_ _466_ AND2X2
XAND2X2_7 vdd gnd _629_ _630_ _637_ AND2X2
XAND2X2_8 vdd gnd _687_ _641_ _688_ AND2X2
XAOI21X1_1 gnd vdd _692__bF_buf5 _701_ _59__2_ _703_ AOI21X1
XAOI21X1_2 gnd vdd _692__bF_buf5 _751_ _51__2_ _754_ AOI21X1
XAOI21X1_3 gnd vdd _694__bF_buf2 _751_ _51__3_ _755_ AOI21X1
XAOI21X1_4 gnd vdd _686__bF_buf6 _763_ _49__0_ _764_ AOI21X1
XAOI21X1_5 gnd vdd _690__bF_buf1 _763_ _49__1_ _765_ AOI21X1
XAOI21X1_6 gnd vdd _692__bF_buf2 _763_ _49__2_ _766_ AOI21X1
XAOI21X1_7 gnd vdd _694__bF_buf2 _763_ _49__3_ _767_ AOI21X1
XAOI21X1_8 gnd vdd _686__bF_buf0 _811_ _40__0_ _812_ AOI21X1
XAOI21X1_9 gnd vdd _690__bF_buf2 _811_ _40__1_ _813_ AOI21X1
XAOI21X1_10 gnd vdd _692__bF_buf4 _811_ _40__2_ _814_ AOI21X1
XAOI21X1_11 gnd vdd _694__bF_buf3 _811_ _40__3_ _815_ AOI21X1
XAOI21X1_12 gnd vdd _692__bF_buf5 _718_ _57__2_ _720_ AOI21X1
XAOI21X1_13 gnd vdd _686__bF_buf5 _816_ _39__0_ _817_ AOI21X1
XAOI21X1_14 gnd vdd _690__bF_buf0 _816_ _39__1_ _818_ AOI21X1
XAOI21X1_15 gnd vdd _692__bF_buf0 _816_ _39__2_ _819_ AOI21X1
XAOI21X1_16 gnd vdd _694__bF_buf1 _816_ _39__3_ _820_ AOI21X1
XAOI21X1_17 gnd vdd _686__bF_buf6 _837_ _35__0_ _838_ AOI21X1
XAOI21X1_18 gnd vdd _690__bF_buf1 _837_ _35__1_ _839_ AOI21X1
XAOI21X1_19 gnd vdd _692__bF_buf2 _837_ _35__2_ _840_ AOI21X1
XAOI21X1_20 gnd vdd _694__bF_buf1 _837_ _35__3_ _841_ AOI21X1
XAOI21X1_21 gnd vdd _694__bF_buf0 _892_ _24__3_ _895_ AOI21X1
XAOI21X1_22 gnd vdd _694__bF_buf0 _897_ _22__3_ _900_ AOI21X1
XAOI21X1_23 gnd vdd _692__bF_buf5 _727_ _55__2_ _729_ AOI21X1
XAOI21X1_24 gnd vdd _686__bF_buf3 _901_ _21__0_ _902_ AOI21X1
XAOI21X1_25 gnd vdd _690__bF_buf4 _901_ _21__1_ _903_ AOI21X1
XAOI21X1_26 gnd vdd _692__bF_buf7 _901_ _21__2_ _904_ AOI21X1
XAOI21X1_27 gnd vdd _694__bF_buf0 _901_ _21__3_ _905_ AOI21X1
XAOI21X1_28 gnd vdd _690__bF_buf4 _907_ _20__1_ _908_ AOI21X1
XAOI21X1_29 gnd vdd _692__bF_buf7 _907_ _20__2_ _909_ AOI21X1
XAOI21X1_30 gnd vdd _686__bF_buf3 _911_ _19__0_ _912_ AOI21X1
XAOI21X1_31 gnd vdd _690__bF_buf4 _911_ _19__1_ _913_ AOI21X1
XAOI21X1_32 gnd vdd _692__bF_buf0 _911_ _19__2_ _914_ AOI21X1
XAOI21X1_33 gnd vdd _694__bF_buf2 _911_ _19__3_ _915_ AOI21X1
XAOI21X1_34 gnd vdd _686__bF_buf5 _738_ _53__0_ _739_ AOI21X1
XAOI21X1_35 gnd vdd _686__bF_buf3 _916_ _18__0_ _917_ AOI21X1
XAOI21X1_36 gnd vdd _690__bF_buf4 _916_ _18__1_ _918_ AOI21X1
XAOI21X1_37 gnd vdd _692__bF_buf0 _916_ _18__2_ _65_ AOI21X1
XAOI21X1_38 gnd vdd _694__bF_buf2 _916_ _18__3_ _66_ AOI21X1
XAOI21X1_39 gnd vdd _686__bF_buf2 _72_ _16__0_ _73_ AOI21X1
XAOI21X1_40 gnd vdd _690__bF_buf4 _72_ _16__1_ _74_ AOI21X1
XAOI21X1_41 gnd vdd _692__bF_buf6 _72_ _16__2_ _75_ AOI21X1
XAOI21X1_42 gnd vdd _694__bF_buf4 _72_ _16__3_ _76_ AOI21X1
XAOI21X1_43 gnd vdd _686__bF_buf2 _77_ _15__0_ _78_ AOI21X1
XAOI21X1_44 gnd vdd _694__bF_buf4 _77_ _15__3_ _81_ AOI21X1
XAOI21X1_45 gnd vdd _690__bF_buf0 _738_ _53__1_ _740_ AOI21X1
XAOI21X1_46 gnd vdd _686__bF_buf2 _82_ _14__0_ _83_ AOI21X1
XAOI21X1_47 gnd vdd _690__bF_buf6 _82_ _14__1_ _84_ AOI21X1
XAOI21X1_48 gnd vdd _692__bF_buf6 _82_ _14__2_ _85_ AOI21X1
XAOI21X1_49 gnd vdd _694__bF_buf4 _82_ _14__3_ _86_ AOI21X1
XAOI21X1_50 gnd vdd _686__bF_buf7 _87_ _13__0_ _88_ AOI21X1
XAOI21X1_51 gnd vdd _694__bF_buf4 _87_ _13__3_ _91_ AOI21X1
XAOI21X1_52 gnd vdd _686__bF_buf7 _92_ _11__0_ _93_ AOI21X1
XAOI21X1_53 gnd vdd _694__bF_buf4 _92_ _11__3_ _96_ AOI21X1
XAOI21X1_54 gnd vdd _686__bF_buf2 _97_ _10__0_ _98_ AOI21X1
XAOI21X1_55 gnd vdd _694__bF_buf4 _97_ _10__3_ _101_ AOI21X1
XAOI21X1_56 gnd vdd _692__bF_buf2 _738_ _53__2_ _741_ AOI21X1
XAOI21X1_57 gnd vdd _686__bF_buf7 _102_ _9__0_ _103_ AOI21X1
XAOI21X1_58 gnd vdd _694__bF_buf4 _102_ _9__3_ _106_ AOI21X1
XAOI21X1_59 gnd vdd _692__bF_buf3 _160_ _61__2_ _162_ AOI21X1
XAOI21X1_60 gnd vdd _692__bF_buf1 _165_ _56__2_ _167_ AOI21X1
XAOI21X1_61 gnd vdd _673_ _676_ _205_ _204_ AOI21X1
XAOI21X1_62 gnd vdd _208_ _209_ _210_ addr_after_0_ AOI21X1
XAOI21X1_63 gnd vdd _208_ _209_ _213_ _204_ AOI21X1
XAOI21X1_64 gnd vdd _673_ _676_ _217_ addr_after_0_ AOI21X1
XAOI21X1_65 gnd vdd _199_ _200_ _232_ addr_after_3_ AOI21X1
XAOI21X1_66 gnd vdd mem_55__0_ _259_ _266_ _265_ AOI21X1
XAOI21X1_67 gnd vdd _694__bF_buf1 _738_ _53__3_ _742_ AOI21X1
XAOI21X1_68 gnd vdd mem_23__0_ _321_ _322_ _320_ AOI21X1
XAOI21X1_69 gnd vdd _328_ mem_4__0_ _332_ _331_ AOI21X1
XAOI21X1_70 gnd vdd mem_8__1_ _381_ _383_ _382_ AOI21X1
XAOI21X1_71 gnd vdd mem_55__1_ _259_ _398_ _397_ AOI21X1
XAOI21X1_72 gnd vdd mem_55__3_ _259_ _561_ _560_ AOI21X1
XAOI21X1_73 gnd vdd mem_23__3_ _321_ _586_ _585_ AOI21X1
XAOI21X1_74 gnd vdd mem_3__3_ _325_ _590_ _589_ AOI21X1
XAOI21X1_75 gnd vdd _654_ _919__5_ _655_ _620_ AOI21X1
XAOI21X1_76 gnd vdd _636_ _630_ _657_ _620_ AOI21X1
XAOI21X1_77 gnd vdd _658_ _659_ _661_ _660_ AOI21X1
XAOI21X1_78 gnd vdd _686__bF_buf3 _751_ _51__0_ _752_ AOI21X1
XAOI21X1_79 gnd vdd _665_ _667_ _668_ _919__2_ AOI21X1
XAOI21X1_80 gnd vdd _683_ _919__3_ _684_ _620_ AOI21X1
XAOI21X1_81 gnd vdd _690__bF_buf1 _751_ _51__1_ _753_ AOI21X1
XAOI22X1_1 gnd vdd _196_ _194_ _197_ _633_ _643_ AOI22X1
XAOI22X1_2 gnd vdd _653_ _655_ addr_after_5_ _649_ _620_ AOI22X1
XAOI22X1_3 gnd vdd _684_ _680_ addr_after_3_ _620_ _682_ AOI22X1
XAOI22X1_4 gnd vdd mem_50__0_ _255_ _256_ _253_ mem_49__0_ AOI22X1
XAOI22X1_5 gnd vdd mem_18__0_ _298_ _299_ _296_ mem_17__0_ AOI22X1
XAOI22X1_6 gnd vdd mem_22__0_ _310_ _311_ _308_ mem_21__0_ AOI22X1
XAOI22X1_7 gnd vdd mem_50__1_ _255_ _396_ _253_ mem_49__1_ AOI22X1
XAOI22X1_8 gnd vdd mem_50__3_ _255_ _559_ _253_ mem_49__3_ AOI22X1
XAOI22X1_9 gnd vdd mem_18__3_ _298_ _575_ _296_ mem_17__3_ AOI22X1
XAOI22X1_10 gnd vdd mem_22__3_ _310_ _579_ _308_ mem_21__3_ AOI22X1
XAOI22X1_11 gnd vdd store_ff2 _625_ _626_ _624_ next_ff2 AOI22X1
XBUFX4_1 vdd gnd _274_ _274__bF_buf4 BUFX4
XBUFX2_1 vdd gnd _920__1_ dout[1] BUFX2
XBUFX2_2 vdd gnd _920__2_ dout[2] BUFX2
XBUFX2_3 vdd gnd _920__3_ dout[3] BUFX2
XBUFX4_2 vdd gnd _274_ _274__bF_buf3 BUFX4
XBUFX2_4 vdd gnd _919__0_ addr[0] BUFX2
XBUFX2_5 vdd gnd _919__1_ addr[1] BUFX2
XBUFX2_6 vdd gnd _919__2_ addr[2] BUFX2
XBUFX2_7 vdd gnd _919__3_ addr[3] BUFX2
XBUFX2_8 vdd gnd _919__4_ addr[4] BUFX2
XBUFX2_9 vdd gnd _919__5_ addr[5] BUFX2
XBUFX2_10 vdd gnd _920__0_ dout[0] BUFX2
XBUFX4_3 vdd gnd rst_n rst_n_hier0_bF_buf5 BUFX4
XBUFX4_4 vdd gnd clk clk_hier0_bF_buf2 BUFX4
XBUFX4_5 vdd gnd _233_ _233__bF_buf3 BUFX4
XBUFX4_6 vdd gnd _233_ _233__bF_buf2 BUFX4
XBUFX4_7 vdd gnd _233_ _233__bF_buf1 BUFX4
XBUFX4_8 vdd gnd _233_ _233__bF_buf0 BUFX4
XBUFX4_9 vdd gnd clk clk_hier0_bF_buf1 BUFX4
XBUFX4_10 vdd gnd clk clk_hier0_bF_buf0 BUFX4
XBUFX4_11 vdd gnd rst_n_hier0_bF_buf3 rst_n_bF_buf41 BUFX4
XBUFX4_12 vdd gnd rst_n_hier0_bF_buf5 rst_n_bF_buf40 BUFX4
XBUFX4_13 vdd gnd rst_n_hier0_bF_buf1 rst_n_bF_buf39 BUFX4
XBUFX4_14 vdd gnd rst_n_hier0_bF_buf5 rst_n_bF_buf38 BUFX4
XBUFX4_15 vdd gnd rst_n_hier0_bF_buf2 rst_n_bF_buf37 BUFX4
XBUFX4_16 vdd gnd rst_n_hier0_bF_buf3 rst_n_bF_buf36 BUFX4
XBUFX4_17 vdd gnd rst_n_hier0_bF_buf4 rst_n_bF_buf35 BUFX4
XBUFX4_18 vdd gnd rst_n rst_n_hier0_bF_buf4 BUFX4
XBUFX4_19 vdd gnd rst_n_hier0_bF_buf0 rst_n_bF_buf34 BUFX4
XBUFX4_20 vdd gnd rst_n_hier0_bF_buf5 rst_n_bF_buf33 BUFX4
XBUFX4_21 vdd gnd rst_n_hier0_bF_buf1 rst_n_bF_buf32 BUFX4
XBUFX4_22 vdd gnd rst_n_hier0_bF_buf2 rst_n_bF_buf31 BUFX4
XBUFX4_23 vdd gnd rst_n_hier0_bF_buf1 rst_n_bF_buf30 BUFX4
XBUFX4_24 vdd gnd rst_n_hier0_bF_buf1 rst_n_bF_buf29 BUFX4
XBUFX4_25 vdd gnd rst_n_hier0_bF_buf4 rst_n_bF_buf28 BUFX4
XBUFX4_26 vdd gnd rst_n_hier0_bF_buf4 rst_n_bF_buf27 BUFX4
XBUFX4_27 vdd gnd rst_n_hier0_bF_buf4 rst_n_bF_buf26 BUFX4
XBUFX4_28 vdd gnd rst_n_hier0_bF_buf5 rst_n_bF_buf25 BUFX4
XBUFX4_29 vdd gnd rst_n rst_n_hier0_bF_buf3 BUFX4
XBUFX4_30 vdd gnd rst_n_hier0_bF_buf1 rst_n_bF_buf24 BUFX4
XBUFX4_31 vdd gnd rst_n_hier0_bF_buf3 rst_n_bF_buf23 BUFX4
XBUFX4_32 vdd gnd rst_n_hier0_bF_buf3 rst_n_bF_buf22 BUFX4
XBUFX4_33 vdd gnd rst_n_hier0_bF_buf4 rst_n_bF_buf21 BUFX4
XBUFX4_34 vdd gnd rst_n_hier0_bF_buf0 rst_n_bF_buf20 BUFX4
XBUFX4_35 vdd gnd rst_n_hier0_bF_buf2 rst_n_bF_buf19 BUFX4
XBUFX4_36 vdd gnd rst_n_hier0_bF_buf0 rst_n_bF_buf18 BUFX4
XBUFX4_37 vdd gnd rst_n_hier0_bF_buf3 rst_n_bF_buf17 BUFX4
XBUFX4_38 vdd gnd rst_n_hier0_bF_buf4 rst_n_bF_buf16 BUFX4
XBUFX4_39 vdd gnd rst_n_hier0_bF_buf0 rst_n_bF_buf15 BUFX4
XBUFX4_40 vdd gnd rst_n rst_n_hier0_bF_buf2 BUFX4
XBUFX4_41 vdd gnd rst_n_hier0_bF_buf5 rst_n_bF_buf14 BUFX4
XBUFX4_42 vdd gnd rst_n_hier0_bF_buf3 rst_n_bF_buf13 BUFX4
XBUFX4_43 vdd gnd rst_n_hier0_bF_buf5 rst_n_bF_buf12 BUFX4
XBUFX4_44 vdd gnd rst_n_hier0_bF_buf3 rst_n_bF_buf11 BUFX4
XBUFX4_45 vdd gnd rst_n_hier0_bF_buf5 rst_n_bF_buf10 BUFX4
XBUFX4_46 vdd gnd rst_n_hier0_bF_buf1 rst_n_bF_buf9 BUFX4
XBUFX4_47 vdd gnd rst_n_hier0_bF_buf4 rst_n_bF_buf8 BUFX4
XBUFX4_48 vdd gnd rst_n_hier0_bF_buf2 rst_n_bF_buf7 BUFX4
XBUFX4_49 vdd gnd rst_n_hier0_bF_buf0 rst_n_bF_buf6 BUFX4
XBUFX4_50 vdd gnd rst_n_hier0_bF_buf1 rst_n_bF_buf5 BUFX4
XBUFX4_51 vdd gnd rst_n rst_n_hier0_bF_buf1 BUFX4
XBUFX4_52 vdd gnd rst_n_hier0_bF_buf2 rst_n_bF_buf4 BUFX4
XBUFX4_53 vdd gnd rst_n_hier0_bF_buf2 rst_n_bF_buf3 BUFX4
XBUFX4_54 vdd gnd rst_n_hier0_bF_buf2 rst_n_bF_buf2 BUFX4
XBUFX4_55 vdd gnd rst_n_hier0_bF_buf0 rst_n_bF_buf1 BUFX4
XBUFX4_56 vdd gnd rst_n_hier0_bF_buf0 rst_n_bF_buf0 BUFX4
XBUFX4_57 vdd gnd _197_ _197__bF_buf3 BUFX4
XBUFX4_58 vdd gnd _197_ _197__bF_buf2 BUFX4
XBUFX4_59 vdd gnd _197_ _197__bF_buf1 BUFX4
XBUFX4_60 vdd gnd _197_ _197__bF_buf0 BUFX4
XBUFX4_61 vdd gnd _690_ _690__bF_buf7 BUFX4
XBUFX4_62 vdd gnd rst_n rst_n_hier0_bF_buf0 BUFX4
XBUFX4_63 vdd gnd _690_ _690__bF_buf6 BUFX4
XBUFX4_64 vdd gnd _690_ _690__bF_buf5 BUFX4
XBUFX4_65 vdd gnd _690_ _690__bF_buf4 BUFX4
XBUFX4_66 vdd gnd _690_ _690__bF_buf3 BUFX4
XBUFX4_67 vdd gnd _690_ _690__bF_buf2 BUFX4
XBUFX4_68 vdd gnd _690_ _690__bF_buf1 BUFX4
XBUFX4_69 vdd gnd _690_ _690__bF_buf0 BUFX4
XBUFX4_70 vdd gnd _692_ _692__bF_buf7 BUFX4
XBUFX4_71 vdd gnd _692_ _692__bF_buf6 BUFX4
XBUFX4_72 vdd gnd _692_ _692__bF_buf5 BUFX4
XBUFX4_73 vdd gnd clk clk_hier0_bF_buf5 BUFX4
XBUFX4_74 vdd gnd _692_ _692__bF_buf4 BUFX4
XBUFX4_75 vdd gnd _692_ _692__bF_buf3 BUFX4
XBUFX4_76 vdd gnd _692_ _692__bF_buf2 BUFX4
XBUFX4_77 vdd gnd _692_ _692__bF_buf1 BUFX4
XBUFX4_78 vdd gnd _692_ _692__bF_buf0 BUFX4
XBUFX4_79 vdd gnd _686_ _686__bF_buf7 BUFX4
XBUFX4_80 vdd gnd _686_ _686__bF_buf6 BUFX4
XBUFX4_81 vdd gnd _686_ _686__bF_buf5 BUFX4
XBUFX4_82 vdd gnd _686_ _686__bF_buf4 BUFX4
XBUFX4_83 vdd gnd _686_ _686__bF_buf3 BUFX4
XBUFX4_84 vdd gnd clk clk_hier0_bF_buf4 BUFX4
XBUFX4_85 vdd gnd _686_ _686__bF_buf2 BUFX4
XBUFX4_86 vdd gnd _686_ _686__bF_buf1 BUFX4
XBUFX4_87 vdd gnd _686_ _686__bF_buf0 BUFX4
XBUFX4_88 vdd gnd _263_ _263__bF_buf4 BUFX4
XBUFX4_89 vdd gnd _263_ _263__bF_buf3 BUFX4
XBUFX4_90 vdd gnd _263_ _263__bF_buf2 BUFX4
XBUFX4_91 vdd gnd _263_ _263__bF_buf1 BUFX4
XBUFX4_92 vdd gnd _263_ _263__bF_buf0 BUFX4
XBUFX4_93 vdd gnd _694_ _694__bF_buf7 BUFX4
XBUFX4_94 vdd gnd _694_ _694__bF_buf6 BUFX4
XBUFX4_95 vdd gnd clk clk_hier0_bF_buf3 BUFX4
XBUFX4_96 vdd gnd _694_ _694__bF_buf5 BUFX4
XBUFX4_97 vdd gnd _694_ _694__bF_buf4 BUFX4
XBUFX4_98 vdd gnd _694_ _694__bF_buf3 BUFX4
XBUFX4_99 vdd gnd _694_ _694__bF_buf2 BUFX4
XBUFX4_100 vdd gnd _694_ _694__bF_buf1 BUFX4
XBUFX4_101 vdd gnd _694_ _694__bF_buf0 BUFX4
XBUFX4_102 vdd gnd _274_ _274__bF_buf2 BUFX4
XBUFX4_103 vdd gnd _274_ _274__bF_buf1 BUFX4
XBUFX4_104 vdd gnd _274_ _274__bF_buf0 BUFX4
XBUFX4_105 vdd gnd _233_ _233__bF_buf4 BUFX4
XCLKBUF1_1 clk_hier0_bF_buf0 vdd gnd clk_bF_buf41 CLKBUF1
XCLKBUF1_2 clk_hier0_bF_buf5 vdd gnd clk_bF_buf32 CLKBUF1
XCLKBUF1_3 clk_hier0_bF_buf3 vdd gnd clk_bF_buf31 CLKBUF1
XCLKBUF1_4 clk_hier0_bF_buf1 vdd gnd clk_bF_buf30 CLKBUF1
XCLKBUF1_5 clk_hier0_bF_buf1 vdd gnd clk_bF_buf29 CLKBUF1
XCLKBUF1_6 clk_hier0_bF_buf3 vdd gnd clk_bF_buf28 CLKBUF1
XCLKBUF1_7 clk_hier0_bF_buf1 vdd gnd clk_bF_buf27 CLKBUF1
XCLKBUF1_8 clk_hier0_bF_buf4 vdd gnd clk_bF_buf26 CLKBUF1
XCLKBUF1_9 clk_hier0_bF_buf3 vdd gnd clk_bF_buf25 CLKBUF1
XCLKBUF1_10 clk_hier0_bF_buf4 vdd gnd clk_bF_buf24 CLKBUF1
XCLKBUF1_11 clk_hier0_bF_buf4 vdd gnd clk_bF_buf23 CLKBUF1
XCLKBUF1_12 clk_hier0_bF_buf0 vdd gnd clk_bF_buf40 CLKBUF1
XCLKBUF1_13 clk_hier0_bF_buf0 vdd gnd clk_bF_buf22 CLKBUF1
XCLKBUF1_14 clk_hier0_bF_buf3 vdd gnd clk_bF_buf21 CLKBUF1
XCLKBUF1_15 clk_hier0_bF_buf4 vdd gnd clk_bF_buf20 CLKBUF1
XCLKBUF1_16 clk_hier0_bF_buf2 vdd gnd clk_bF_buf19 CLKBUF1
XCLKBUF1_17 clk_hier0_bF_buf5 vdd gnd clk_bF_buf18 CLKBUF1
XCLKBUF1_18 clk_hier0_bF_buf0 vdd gnd clk_bF_buf17 CLKBUF1
XCLKBUF1_19 clk_hier0_bF_buf4 vdd gnd clk_bF_buf16 CLKBUF1
XCLKBUF1_20 clk_hier0_bF_buf3 vdd gnd clk_bF_buf15 CLKBUF1
XCLKBUF1_21 clk_hier0_bF_buf1 vdd gnd clk_bF_buf14 CLKBUF1
XCLKBUF1_22 clk_hier0_bF_buf2 vdd gnd clk_bF_buf13 CLKBUF1
XCLKBUF1_23 clk_hier0_bF_buf5 vdd gnd clk_bF_buf39 CLKBUF1
XCLKBUF1_24 clk_hier0_bF_buf2 vdd gnd clk_bF_buf12 CLKBUF1
XCLKBUF1_25 clk_hier0_bF_buf4 vdd gnd clk_bF_buf11 CLKBUF1
XCLKBUF1_26 clk_hier0_bF_buf2 vdd gnd clk_bF_buf10 CLKBUF1
XCLKBUF1_27 clk_hier0_bF_buf5 vdd gnd clk_bF_buf9 CLKBUF1
XCLKBUF1_28 clk_hier0_bF_buf2 vdd gnd clk_bF_buf8 CLKBUF1
XCLKBUF1_29 clk_hier0_bF_buf4 vdd gnd clk_bF_buf7 CLKBUF1
XCLKBUF1_30 clk_hier0_bF_buf0 vdd gnd clk_bF_buf6 CLKBUF1
XCLKBUF1_31 clk_hier0_bF_buf5 vdd gnd clk_bF_buf5 CLKBUF1
XCLKBUF1_32 clk_hier0_bF_buf2 vdd gnd clk_bF_buf4 CLKBUF1
XCLKBUF1_33 clk_hier0_bF_buf3 vdd gnd clk_bF_buf3 CLKBUF1
XCLKBUF1_34 clk_hier0_bF_buf5 vdd gnd clk_bF_buf38 CLKBUF1
XCLKBUF1_35 clk_hier0_bF_buf3 vdd gnd clk_bF_buf2 CLKBUF1
XCLKBUF1_36 clk_hier0_bF_buf0 vdd gnd clk_bF_buf1 CLKBUF1
XCLKBUF1_37 clk_hier0_bF_buf1 vdd gnd clk_bF_buf0 CLKBUF1
XCLKBUF1_38 clk_hier0_bF_buf0 vdd gnd clk_bF_buf37 CLKBUF1
XCLKBUF1_39 clk_hier0_bF_buf1 vdd gnd clk_bF_buf36 CLKBUF1
XCLKBUF1_40 clk_hier0_bF_buf2 vdd gnd clk_bF_buf35 CLKBUF1
XCLKBUF1_41 clk_hier0_bF_buf1 vdd gnd clk_bF_buf34 CLKBUF1
XCLKBUF1_42 clk_hier0_bF_buf5 vdd gnd clk_bF_buf33 CLKBUF1
XDFFSR_1 gnd vdd addr_after_0_ vdd rst_n_bF_buf17 _919__0_ clk_bF_buf19 DFFSR
XDFFSR_2 gnd vdd _0__3_ vdd rst_n_bF_buf38 _920__3_ clk_bF_buf32 DFFSR
XDFFSR_3 gnd vdd _15__1_ vdd rst_n_bF_buf19 mem_22__1_ clk_bF_buf8 DFFSR
XDFFSR_4 gnd vdd _15__2_ vdd rst_n_bF_buf21 mem_22__2_ clk_bF_buf31 DFFSR
XDFFSR_5 gnd vdd _15__3_ vdd rst_n_bF_buf19 mem_22__3_ clk_bF_buf8 DFFSR
XDFFSR_6 gnd vdd _16__0_ vdd rst_n_bF_buf31 mem_23__0_ clk_bF_buf25 DFFSR
XDFFSR_7 gnd vdd _16__1_ vdd rst_n_bF_buf4 mem_23__1_ clk_bF_buf4 DFFSR
XDFFSR_8 gnd vdd _16__2_ vdd rst_n_bF_buf4 mem_23__2_ clk_bF_buf13 DFFSR
XDFFSR_9 gnd vdd _16__3_ vdd rst_n_bF_buf3 mem_23__3_ clk_bF_buf35 DFFSR
XDFFSR_10 gnd vdd _17__0_ vdd rst_n_bF_buf4 mem_24__0_ clk_bF_buf13 DFFSR
XDFFSR_11 gnd vdd _17__1_ vdd rst_n_bF_buf4 mem_24__1_ clk_bF_buf13 DFFSR
XDFFSR_12 gnd vdd _17__2_ vdd rst_n_bF_buf7 mem_24__2_ clk_bF_buf4 DFFSR
XDFFSR_13 gnd vdd _1__0_ vdd rst_n_bF_buf10 mem_0__0_ clk_bF_buf18 DFFSR
XDFFSR_14 gnd vdd _17__3_ vdd rst_n_bF_buf37 mem_24__3_ clk_bF_buf4 DFFSR
XDFFSR_15 gnd vdd _18__0_ vdd rst_n_bF_buf28 mem_25__0_ clk_bF_buf22 DFFSR
XDFFSR_16 gnd vdd _18__1_ vdd rst_n_bF_buf27 mem_25__1_ clk_bF_buf1 DFFSR
XDFFSR_17 gnd vdd _18__2_ vdd rst_n_bF_buf27 mem_25__2_ clk_bF_buf22 DFFSR
XDFFSR_18 gnd vdd _18__3_ vdd rst_n_bF_buf21 mem_25__3_ clk_bF_buf22 DFFSR
XDFFSR_19 gnd vdd _19__0_ vdd rst_n_bF_buf8 mem_26__0_ clk_bF_buf41 DFFSR
XDFFSR_20 gnd vdd _19__1_ vdd rst_n_bF_buf27 mem_26__1_ clk_bF_buf22 DFFSR
XDFFSR_21 gnd vdd _19__2_ vdd rst_n_bF_buf8 mem_26__2_ clk_bF_buf1 DFFSR
XDFFSR_22 gnd vdd _19__3_ vdd rst_n_bF_buf27 mem_26__3_ clk_bF_buf22 DFFSR
XDFFSR_23 gnd vdd _20__0_ vdd rst_n_bF_buf16 mem_27__0_ clk_bF_buf31 DFFSR
XDFFSR_24 gnd vdd _1__1_ vdd rst_n_bF_buf20 mem_0__1_ clk_bF_buf26 DFFSR
XDFFSR_25 gnd vdd _20__1_ vdd rst_n_bF_buf7 mem_27__1_ clk_bF_buf1 DFFSR
XDFFSR_26 gnd vdd _20__2_ vdd rst_n_bF_buf37 mem_27__2_ clk_bF_buf31 DFFSR
XDFFSR_27 gnd vdd _20__3_ vdd rst_n_bF_buf13 mem_27__3_ clk_bF_buf28 DFFSR
XDFFSR_28 gnd vdd _21__0_ vdd rst_n_bF_buf21 mem_28__0_ clk_bF_buf31 DFFSR
XDFFSR_29 gnd vdd _21__1_ vdd rst_n_bF_buf27 mem_28__1_ clk_bF_buf1 DFFSR
XDFFSR_30 gnd vdd _21__2_ vdd rst_n_bF_buf21 mem_28__2_ clk_bF_buf22 DFFSR
XDFFSR_31 gnd vdd _21__3_ vdd rst_n_bF_buf27 mem_28__3_ clk_bF_buf1 DFFSR
XDFFSR_32 gnd vdd _22__0_ vdd rst_n_bF_buf31 mem_29__0_ clk_bF_buf25 DFFSR
XDFFSR_33 gnd vdd _22__1_ vdd rst_n_bF_buf23 mem_29__1_ clk_bF_buf3 DFFSR
XDFFSR_34 gnd vdd _22__2_ vdd rst_n_bF_buf29 mem_29__2_ clk_bF_buf29 DFFSR
XDFFSR_35 gnd vdd _1__2_ vdd rst_n_bF_buf14 mem_0__2_ clk_bF_buf11 DFFSR
XDFFSR_36 gnd vdd _22__3_ vdd rst_n_bF_buf23 mem_29__3_ clk_bF_buf21 DFFSR
XDFFSR_37 gnd vdd _24__0_ vdd rst_n_bF_buf13 mem_30__0_ clk_bF_buf3 DFFSR
XDFFSR_38 gnd vdd _24__1_ vdd rst_n_bF_buf24 mem_30__1_ clk_bF_buf30 DFFSR
XDFFSR_39 gnd vdd _24__2_ vdd rst_n_bF_buf9 mem_30__2_ clk_bF_buf0 DFFSR
XDFFSR_40 gnd vdd _24__3_ vdd rst_n_bF_buf23 mem_30__3_ clk_bF_buf21 DFFSR
XDFFSR_41 gnd vdd _25__0_ vdd rst_n_bF_buf11 mem_31__0_ clk_bF_buf15 DFFSR
XDFFSR_42 gnd vdd _25__1_ vdd rst_n_bF_buf11 mem_31__1_ clk_bF_buf15 DFFSR
XDFFSR_43 gnd vdd _25__2_ vdd rst_n_bF_buf13 mem_31__2_ clk_bF_buf28 DFFSR
XDFFSR_44 gnd vdd _25__3_ vdd rst_n_bF_buf29 mem_31__3_ clk_bF_buf29 DFFSR
XDFFSR_45 gnd vdd _26__0_ vdd rst_n_bF_buf9 mem_32__0_ clk_bF_buf34 DFFSR
XDFFSR_46 gnd vdd _1__3_ vdd rst_n_bF_buf33 mem_0__3_ clk_bF_buf20 DFFSR
XDFFSR_47 gnd vdd _26__1_ vdd rst_n_bF_buf23 mem_32__1_ clk_bF_buf21 DFFSR
XDFFSR_48 gnd vdd _26__2_ vdd rst_n_bF_buf13 mem_32__2_ clk_bF_buf28 DFFSR
XDFFSR_49 gnd vdd _26__3_ vdd rst_n_bF_buf29 mem_32__3_ clk_bF_buf3 DFFSR
XDFFSR_50 gnd vdd _27__0_ vdd rst_n_bF_buf14 mem_33__0_ clk_bF_buf9 DFFSR
XDFFSR_51 gnd vdd _27__1_ vdd rst_n_bF_buf20 mem_33__1_ clk_bF_buf40 DFFSR
XDFFSR_52 gnd vdd _27__2_ vdd rst_n_bF_buf36 mem_33__2_ clk_bF_buf2 DFFSR
XDFFSR_53 gnd vdd _27__3_ vdd rst_n_bF_buf14 mem_33__3_ clk_bF_buf11 DFFSR
XDFFSR_54 gnd vdd _28__0_ vdd rst_n_bF_buf18 mem_34__0_ clk_bF_buf11 DFFSR
XDFFSR_55 gnd vdd _28__1_ vdd rst_n_bF_buf20 mem_34__1_ clk_bF_buf40 DFFSR
XDFFSR_56 gnd vdd _28__2_ vdd rst_n_bF_buf36 mem_34__2_ clk_bF_buf15 DFFSR
XDFFSR_57 gnd vdd _12__0_ vdd rst_n_bF_buf24 mem_1__0_ clk_bF_buf36 DFFSR
XDFFSR_58 gnd vdd _28__3_ vdd rst_n_bF_buf26 mem_34__3_ clk_bF_buf37 DFFSR
XDFFSR_59 gnd vdd _29__0_ vdd rst_n_bF_buf40 mem_35__0_ clk_bF_buf18 DFFSR
XDFFSR_60 gnd vdd _29__1_ vdd rst_n_bF_buf40 mem_35__1_ clk_bF_buf33 DFFSR
XDFFSR_61 gnd vdd _29__2_ vdd rst_n_bF_buf40 mem_35__2_ clk_bF_buf18 DFFSR
XDFFSR_62 gnd vdd _29__3_ vdd rst_n_bF_buf40 mem_35__3_ clk_bF_buf9 DFFSR
XDFFSR_63 gnd vdd _30__0_ vdd rst_n_bF_buf40 mem_36__0_ clk_bF_buf18 DFFSR
XDFFSR_64 gnd vdd _30__1_ vdd rst_n_bF_buf25 mem_36__1_ clk_bF_buf33 DFFSR
XDFFSR_65 gnd vdd _30__2_ vdd rst_n_bF_buf12 mem_36__2_ clk_bF_buf39 DFFSR
XDFFSR_66 gnd vdd _30__3_ vdd rst_n_bF_buf10 mem_36__3_ clk_bF_buf9 DFFSR
XDFFSR_67 gnd vdd _31__0_ vdd rst_n_bF_buf0 mem_37__0_ clk_bF_buf7 DFFSR
XDFFSR_68 gnd vdd _12__1_ vdd rst_n_bF_buf41 mem_1__1_ clk_bF_buf14 DFFSR
XDFFSR_69 gnd vdd _31__1_ vdd rst_n_bF_buf40 mem_37__1_ clk_bF_buf39 DFFSR
XDFFSR_70 gnd vdd _31__2_ vdd rst_n_bF_buf15 mem_37__2_ clk_bF_buf23 DFFSR
XDFFSR_71 gnd vdd _31__3_ vdd rst_n_bF_buf12 mem_37__3_ clk_bF_buf39 DFFSR
XDFFSR_72 gnd vdd _32__0_ vdd rst_n_bF_buf0 mem_38__0_ clk_bF_buf7 DFFSR
XDFFSR_73 gnd vdd _32__1_ vdd rst_n_bF_buf12 mem_38__1_ clk_bF_buf39 DFFSR
XDFFSR_74 gnd vdd _32__2_ vdd rst_n_bF_buf10 mem_38__2_ clk_bF_buf9 DFFSR
XDFFSR_75 gnd vdd _32__3_ vdd rst_n_bF_buf33 mem_38__3_ clk_bF_buf20 DFFSR
XDFFSR_76 gnd vdd _33__0_ vdd rst_n_bF_buf10 mem_39__0_ clk_bF_buf9 DFFSR
XDFFSR_77 gnd vdd _33__1_ vdd rst_n_bF_buf18 mem_39__1_ clk_bF_buf26 DFFSR
XDFFSR_78 gnd vdd _33__2_ vdd rst_n_bF_buf33 mem_39__2_ clk_bF_buf20 DFFSR
XDFFSR_79 gnd vdd _12__2_ vdd rst_n_bF_buf23 mem_1__2_ clk_bF_buf3 DFFSR
XDFFSR_80 gnd vdd _33__3_ vdd rst_n_bF_buf15 mem_39__3_ clk_bF_buf16 DFFSR
XDFFSR_81 gnd vdd _35__0_ vdd rst_n_bF_buf15 mem_40__0_ clk_bF_buf11 DFFSR
XDFFSR_82 gnd vdd _35__1_ vdd rst_n_bF_buf18 mem_40__1_ clk_bF_buf16 DFFSR
XDFFSR_83 gnd vdd _35__2_ vdd rst_n_bF_buf15 mem_40__2_ clk_bF_buf16 DFFSR
XDFFSR_84 gnd vdd _35__3_ vdd rst_n_bF_buf15 mem_40__3_ clk_bF_buf16 DFFSR
XDFFSR_85 gnd vdd _36__0_ vdd rst_n_bF_buf35 mem_41__0_ clk_bF_buf17 DFFSR
XDFFSR_86 gnd vdd _36__1_ vdd rst_n_bF_buf8 mem_41__1_ clk_bF_buf17 DFFSR
XDFFSR_87 gnd vdd _36__2_ vdd rst_n_bF_buf27 mem_41__2_ clk_bF_buf1 DFFSR
XDFFSR_88 gnd vdd _36__3_ vdd rst_n_bF_buf28 mem_41__3_ clk_bF_buf22 DFFSR
XDFFSR_89 gnd vdd _37__0_ vdd rst_n_bF_buf35 mem_42__0_ clk_bF_buf41 DFFSR
XDFFSR_90 gnd vdd _12__3_ vdd rst_n_bF_buf41 mem_1__3_ clk_bF_buf14 DFFSR
XDFFSR_91 gnd vdd _37__1_ vdd rst_n_bF_buf28 mem_42__1_ clk_bF_buf41 DFFSR
XDFFSR_92 gnd vdd _37__2_ vdd rst_n_bF_buf8 mem_42__2_ clk_bF_buf17 DFFSR
XDFFSR_93 gnd vdd _37__3_ vdd rst_n_bF_buf8 mem_42__3_ clk_bF_buf17 DFFSR
XDFFSR_94 gnd vdd _38__0_ vdd rst_n_bF_buf34 mem_43__0_ clk_bF_buf24 DFFSR
XDFFSR_95 gnd vdd _38__1_ vdd rst_n_bF_buf6 mem_43__1_ clk_bF_buf6 DFFSR
XDFFSR_96 gnd vdd _38__2_ vdd rst_n_bF_buf0 mem_43__2_ clk_bF_buf26 DFFSR
XDFFSR_97 gnd vdd _38__3_ vdd rst_n_bF_buf10 mem_43__3_ clk_bF_buf18 DFFSR
XDFFSR_98 gnd vdd _39__0_ vdd rst_n_bF_buf6 mem_44__0_ clk_bF_buf6 DFFSR
XDFFSR_99 gnd vdd _39__1_ vdd rst_n_bF_buf34 mem_44__1_ clk_bF_buf6 DFFSR
XDFFSR_100 gnd vdd _39__2_ vdd rst_n_bF_buf8 mem_44__2_ clk_bF_buf17 DFFSR
XDFFSR_101 gnd vdd _23__0_ vdd rst_n_bF_buf32 mem_2__0_ clk_bF_buf36 DFFSR
XDFFSR_102 gnd vdd _39__3_ vdd rst_n_bF_buf34 mem_44__3_ clk_bF_buf24 DFFSR
XDFFSR_103 gnd vdd _40__0_ vdd rst_n_bF_buf12 mem_45__0_ clk_bF_buf39 DFFSR
XDFFSR_104 gnd vdd _40__1_ vdd rst_n_bF_buf10 mem_45__1_ clk_bF_buf18 DFFSR
XDFFSR_105 gnd vdd _40__2_ vdd rst_n_bF_buf33 mem_45__2_ clk_bF_buf20 DFFSR
XDFFSR_106 gnd vdd _40__3_ vdd rst_n_bF_buf12 mem_45__3_ clk_bF_buf39 DFFSR
XDFFSR_107 gnd vdd _41__0_ vdd rst_n_bF_buf18 mem_46__0_ clk_bF_buf11 DFFSR
XDFFSR_108 gnd vdd _41__1_ vdd rst_n_bF_buf33 mem_46__1_ clk_bF_buf20 DFFSR
XDFFSR_109 gnd vdd _41__2_ vdd rst_n_bF_buf12 mem_46__2_ clk_bF_buf39 DFFSR
XDFFSR_110 gnd vdd _41__3_ vdd rst_n_bF_buf33 mem_46__3_ clk_bF_buf20 DFFSR
XDFFSR_111 gnd vdd _42__0_ vdd rst_n_bF_buf25 mem_47__0_ clk_bF_buf5 DFFSR
XDFFSR_112 gnd vdd addr_after_1_ vdd rst_n_bF_buf22 _919__1_ clk_bF_buf12 DFFSR
XDFFSR_113 gnd vdd _23__1_ vdd rst_n_bF_buf41 mem_2__1_ clk_bF_buf30 DFFSR
XDFFSR_114 gnd vdd _42__1_ vdd rst_n_bF_buf38 mem_47__1_ clk_bF_buf33 DFFSR
XDFFSR_115 gnd vdd _42__2_ vdd rst_n_bF_buf36 mem_47__2_ clk_bF_buf2 DFFSR
XDFFSR_116 gnd vdd _42__3_ vdd rst_n_bF_buf25 mem_47__3_ clk_bF_buf5 DFFSR
XDFFSR_117 gnd vdd _43__0_ vdd rst_n_bF_buf14 mem_48__0_ clk_bF_buf5 DFFSR
XDFFSR_118 gnd vdd _43__1_ vdd rst_n_bF_buf38 mem_48__1_ clk_bF_buf5 DFFSR
XDFFSR_119 gnd vdd _43__2_ vdd rst_n_bF_buf36 mem_48__2_ clk_bF_buf2 DFFSR
XDFFSR_120 gnd vdd _43__3_ vdd rst_n_bF_buf25 mem_48__3_ clk_bF_buf5 DFFSR
XDFFSR_121 gnd vdd _44__0_ vdd rst_n_bF_buf38 mem_49__0_ clk_bF_buf33 DFFSR
XDFFSR_122 gnd vdd _44__1_ vdd rst_n_bF_buf30 mem_49__1_ clk_bF_buf38 DFFSR
XDFFSR_123 gnd vdd _44__2_ vdd rst_n_bF_buf30 mem_49__2_ clk_bF_buf38 DFFSR
XDFFSR_124 gnd vdd _23__2_ vdd rst_n_bF_buf29 mem_2__2_ clk_bF_buf30 DFFSR
XDFFSR_125 gnd vdd _44__3_ vdd rst_n_bF_buf5 mem_49__3_ clk_bF_buf32 DFFSR
XDFFSR_126 gnd vdd _46__0_ vdd rst_n_bF_buf38 mem_50__0_ clk_bF_buf32 DFFSR
XDFFSR_127 gnd vdd _46__1_ vdd rst_n_bF_buf38 mem_50__1_ clk_bF_buf33 DFFSR
XDFFSR_128 gnd vdd _46__2_ vdd rst_n_bF_buf25 mem_50__2_ clk_bF_buf33 DFFSR
XDFFSR_129 gnd vdd _46__3_ vdd rst_n_bF_buf38 mem_50__3_ clk_bF_buf32 DFFSR
XDFFSR_130 gnd vdd _47__0_ vdd rst_n_bF_buf28 mem_51__0_ clk_bF_buf37 DFFSR
XDFFSR_131 gnd vdd _47__1_ vdd rst_n_bF_buf26 mem_51__1_ clk_bF_buf40 DFFSR
XDFFSR_132 gnd vdd _47__2_ vdd rst_n_bF_buf20 mem_51__2_ clk_bF_buf40 DFFSR
XDFFSR_133 gnd vdd _47__3_ vdd rst_n_bF_buf28 mem_51__3_ clk_bF_buf37 DFFSR
XDFFSR_134 gnd vdd _48__0_ vdd rst_n_bF_buf35 mem_52__0_ clk_bF_buf41 DFFSR
XDFFSR_135 gnd vdd _23__3_ vdd rst_n_bF_buf22 mem_2__3_ clk_bF_buf14 DFFSR
XDFFSR_136 gnd vdd _48__1_ vdd rst_n_bF_buf26 mem_52__1_ clk_bF_buf41 DFFSR
XDFFSR_137 gnd vdd _48__2_ vdd rst_n_bF_buf20 mem_52__2_ clk_bF_buf26 DFFSR
XDFFSR_138 gnd vdd _48__3_ vdd rst_n_bF_buf20 mem_52__3_ clk_bF_buf40 DFFSR
XDFFSR_139 gnd vdd _49__0_ vdd rst_n_bF_buf26 mem_53__0_ clk_bF_buf40 DFFSR
XDFFSR_140 gnd vdd _49__1_ vdd rst_n_bF_buf26 mem_53__1_ clk_bF_buf26 DFFSR
XDFFSR_141 gnd vdd _49__2_ vdd rst_n_bF_buf26 mem_53__2_ clk_bF_buf26 DFFSR
XDFFSR_142 gnd vdd _49__3_ vdd rst_n_bF_buf26 mem_53__3_ clk_bF_buf41 DFFSR
XDFFSR_143 gnd vdd _50__0_ vdd rst_n_bF_buf1 mem_54__0_ clk_bF_buf7 DFFSR
XDFFSR_144 gnd vdd _50__1_ vdd rst_n_bF_buf1 mem_54__1_ clk_bF_buf7 DFFSR
XDFFSR_145 gnd vdd _50__2_ vdd rst_n_bF_buf0 mem_54__2_ clk_bF_buf7 DFFSR
XDFFSR_146 gnd vdd _34__0_ vdd rst_n_bF_buf39 mem_3__0_ clk_bF_buf34 DFFSR
XDFFSR_147 gnd vdd _50__3_ vdd rst_n_bF_buf28 mem_54__3_ clk_bF_buf40 DFFSR
XDFFSR_148 gnd vdd _51__0_ vdd rst_n_bF_buf13 mem_55__0_ clk_bF_buf28 DFFSR
XDFFSR_149 gnd vdd _51__1_ vdd rst_n_bF_buf13 mem_55__1_ clk_bF_buf28 DFFSR
XDFFSR_150 gnd vdd _51__2_ vdd rst_n_bF_buf28 mem_55__2_ clk_bF_buf37 DFFSR
XDFFSR_151 gnd vdd _51__3_ vdd rst_n_bF_buf16 mem_55__3_ clk_bF_buf28 DFFSR
XDFFSR_152 gnd vdd _52__0_ vdd rst_n_bF_buf18 mem_56__0_ clk_bF_buf16 DFFSR
XDFFSR_153 gnd vdd _52__1_ vdd rst_n_bF_buf33 mem_56__1_ clk_bF_buf20 DFFSR
XDFFSR_154 gnd vdd _52__2_ vdd rst_n_bF_buf18 mem_56__2_ clk_bF_buf11 DFFSR
XDFFSR_155 gnd vdd _52__3_ vdd rst_n_bF_buf14 mem_56__3_ clk_bF_buf5 DFFSR
XDFFSR_156 gnd vdd _53__0_ vdd rst_n_bF_buf6 mem_57__0_ clk_bF_buf24 DFFSR
XDFFSR_157 gnd vdd _34__1_ vdd rst_n_bF_buf41 mem_3__1_ clk_bF_buf30 DFFSR
XDFFSR_158 gnd vdd _53__1_ vdd rst_n_bF_buf35 mem_57__1_ clk_bF_buf41 DFFSR
XDFFSR_159 gnd vdd _53__2_ vdd rst_n_bF_buf0 mem_57__2_ clk_bF_buf23 DFFSR
XDFFSR_160 gnd vdd _53__3_ vdd rst_n_bF_buf35 mem_57__3_ clk_bF_buf6 DFFSR
XDFFSR_161 gnd vdd _54__0_ vdd rst_n_bF_buf6 mem_58__0_ clk_bF_buf23 DFFSR
XDFFSR_162 gnd vdd _54__1_ vdd rst_n_bF_buf34 mem_58__1_ clk_bF_buf24 DFFSR
XDFFSR_163 gnd vdd _54__2_ vdd rst_n_bF_buf34 mem_58__2_ clk_bF_buf24 DFFSR
XDFFSR_164 gnd vdd _54__3_ vdd rst_n_bF_buf1 mem_58__3_ clk_bF_buf23 DFFSR
XDFFSR_165 gnd vdd _55__0_ vdd rst_n_bF_buf36 mem_59__0_ clk_bF_buf28 DFFSR
XDFFSR_166 gnd vdd _55__1_ vdd rst_n_bF_buf11 mem_59__1_ clk_bF_buf2 DFFSR
XDFFSR_167 gnd vdd _55__2_ vdd rst_n_bF_buf36 mem_59__2_ clk_bF_buf15 DFFSR
XDFFSR_168 gnd vdd _34__2_ vdd rst_n_bF_buf23 mem_3__2_ clk_bF_buf3 DFFSR
XDFFSR_169 gnd vdd _55__3_ vdd rst_n_bF_buf11 mem_59__3_ clk_bF_buf15 DFFSR
XDFFSR_170 gnd vdd _57__0_ vdd rst_n_bF_buf36 mem_60__0_ clk_bF_buf15 DFFSR
XDFFSR_171 gnd vdd _57__1_ vdd rst_n_bF_buf30 mem_60__1_ clk_bF_buf38 DFFSR
XDFFSR_172 gnd vdd _57__2_ vdd rst_n_bF_buf16 mem_60__2_ clk_bF_buf37 DFFSR
XDFFSR_173 gnd vdd _57__3_ vdd rst_n_bF_buf25 mem_60__3_ clk_bF_buf38 DFFSR
XDFFSR_174 gnd vdd _58__0_ vdd rst_n_bF_buf35 mem_61__0_ clk_bF_buf26 DFFSR
XDFFSR_175 gnd vdd _58__1_ vdd rst_n_bF_buf1 mem_61__1_ clk_bF_buf7 DFFSR
XDFFSR_176 gnd vdd _58__2_ vdd rst_n_bF_buf6 mem_61__2_ clk_bF_buf24 DFFSR
XDFFSR_177 gnd vdd _58__3_ vdd rst_n_bF_buf1 mem_61__3_ clk_bF_buf23 DFFSR
XDFFSR_178 gnd vdd _59__0_ vdd rst_n_bF_buf14 mem_62__0_ clk_bF_buf9 DFFSR
XDFFSR_179 gnd vdd _34__3_ vdd rst_n_bF_buf39 mem_3__3_ clk_bF_buf27 DFFSR
XDFFSR_180 gnd vdd _59__1_ vdd rst_n_bF_buf25 mem_62__1_ clk_bF_buf38 DFFSR
XDFFSR_181 gnd vdd _59__2_ vdd rst_n_bF_buf20 mem_62__2_ clk_bF_buf37 DFFSR
XDFFSR_182 gnd vdd _59__3_ vdd rst_n_bF_buf40 mem_62__3_ clk_bF_buf33 DFFSR
XDFFSR_183 gnd vdd _60__0_ vdd rst_n_bF_buf34 mem_63__0_ clk_bF_buf6 DFFSR
XDFFSR_184 gnd vdd _60__1_ vdd rst_n_bF_buf6 mem_63__1_ clk_bF_buf6 DFFSR
XDFFSR_185 gnd vdd _60__2_ vdd rst_n_bF_buf34 mem_63__2_ clk_bF_buf24 DFFSR
XDFFSR_186 gnd vdd _60__3_ vdd rst_n_bF_buf1 mem_63__3_ clk_bF_buf23 DFFSR
XDFFSR_187 gnd vdd store_ff2 vdd rst_n_bF_buf17 store_d clk_bF_buf12 DFFSR
XDFFSR_188 gnd vdd next_ff2 vdd rst_n_bF_buf31 next_d clk_bF_buf25 DFFSR
XDFFSR_189 gnd vdd prev_ff2 vdd rst_n_bF_buf22 prev_d clk_bF_buf12 DFFSR
XDFFSR_190 gnd vdd _45__0_ vdd rst_n_bF_buf32 mem_4__0_ clk_bF_buf14 DFFSR
XDFFSR_191 gnd vdd store vdd rst_n_bF_buf32 store_ff1 clk_bF_buf27 DFFSR
XDFFSR_192 gnd vdd store_ff1 vdd rst_n_bF_buf22 store_ff2 clk_bF_buf14 DFFSR
XDFFSR_193 gnd vdd next vdd rst_n_bF_buf17 next_ff1 clk_bF_buf12 DFFSR
XDFFSR_194 gnd vdd next_ff1 vdd rst_n_bF_buf17 next_ff2 clk_bF_buf19 DFFSR
XDFFSR_195 gnd vdd prev vdd rst_n_bF_buf39 prev_ff1 clk_bF_buf27 DFFSR
XDFFSR_196 gnd vdd prev_ff1 vdd rst_n_bF_buf32 prev_ff2 clk_bF_buf27 DFFSR
XDFFSR_197 gnd vdd _45__1_ vdd rst_n_bF_buf39 mem_4__1_ clk_bF_buf27 DFFSR
XDFFSR_198 gnd vdd _45__2_ vdd rst_n_bF_buf22 mem_4__2_ clk_bF_buf14 DFFSR
XDFFSR_199 gnd vdd addr_after_2_ vdd rst_n_bF_buf17 _919__2_ clk_bF_buf19 DFFSR
XDFFSR_200 gnd vdd _45__3_ vdd rst_n_bF_buf32 mem_4__3_ clk_bF_buf36 DFFSR
XDFFSR_201 gnd vdd _56__0_ vdd rst_n_bF_buf39 mem_5__0_ clk_bF_buf34 DFFSR
XDFFSR_202 gnd vdd _56__1_ vdd rst_n_bF_buf24 mem_5__1_ clk_bF_buf34 DFFSR
XDFFSR_203 gnd vdd _56__2_ vdd rst_n_bF_buf9 mem_5__2_ clk_bF_buf0 DFFSR
XDFFSR_204 gnd vdd _56__3_ vdd rst_n_bF_buf32 mem_5__3_ clk_bF_buf27 DFFSR
XDFFSR_205 gnd vdd _61__0_ vdd rst_n_bF_buf32 mem_6__0_ clk_bF_buf36 DFFSR
XDFFSR_206 gnd vdd _61__1_ vdd rst_n_bF_buf39 mem_6__1_ clk_bF_buf34 DFFSR
XDFFSR_207 gnd vdd _61__2_ vdd rst_n_bF_buf41 mem_6__2_ clk_bF_buf30 DFFSR
XDFFSR_208 gnd vdd _61__3_ vdd rst_n_bF_buf39 mem_6__3_ clk_bF_buf27 DFFSR