* XSpice netlist created from SPICE and liberty sources by spi2xspice.py
*SPICE netlist created from BLIF module nibble_mem by blif2BSpice
.subckt nibble_mem a_vdd a_gnd a_clk a_rst_n a_din_0_ a_din_1_ a_din_2_ a_din_3_ a_store a_next a_prev a_dout_0_ a_dout_1_ a_dout_2_ a_dout_3_ a_addr_0_ a_addr_1_ a_addr_2_ a_addr_3_ a_addr_4_ a_addr_5_
AAND2X2_1 [_232_ _205_] _273_ d_lut_AND2X2
AAND2X2_2 [_644_ addr_after_5_] _274_ d_lut_AND2X2
AAND2X2_3 [_232_ _210_] _289_ d_lut_AND2X2
AAND2X2_4 [_279_ _233__bF_buf1] _308_ d_lut_AND2X2
AAND2X2_5 [_232_ _213_] _344_ d_lut_AND2X2
AAND2X2_6 [_232_ _217_] _466_ d_lut_AND2X2
AAND2X2_7 [_629_ _630_] _637_ d_lut_AND2X2
AAND2X2_8 [_687_ _641_] _688_ d_lut_AND2X2
AAOI21X1_1 [_692__bF_buf5 _701_ _703_] _59__2_ d_lut_AOI21X1
AAOI21X1_2 [_692__bF_buf5 _751_ _754_] _51__2_ d_lut_AOI21X1
AAOI21X1_3 [_694__bF_buf2 _751_ _755_] _51__3_ d_lut_AOI21X1
AAOI21X1_4 [_686__bF_buf6 _763_ _764_] _49__0_ d_lut_AOI21X1
AAOI21X1_5 [_690__bF_buf1 _763_ _765_] _49__1_ d_lut_AOI21X1
AAOI21X1_6 [_692__bF_buf2 _763_ _766_] _49__2_ d_lut_AOI21X1
AAOI21X1_7 [_694__bF_buf2 _763_ _767_] _49__3_ d_lut_AOI21X1
AAOI21X1_8 [_686__bF_buf0 _811_ _812_] _40__0_ d_lut_AOI21X1
AAOI21X1_9 [_690__bF_buf2 _811_ _813_] _40__1_ d_lut_AOI21X1
AAOI21X1_10 [_692__bF_buf4 _811_ _814_] _40__2_ d_lut_AOI21X1
AAOI21X1_11 [_694__bF_buf3 _811_ _815_] _40__3_ d_lut_AOI21X1
AAOI21X1_12 [_692__bF_buf5 _718_ _720_] _57__2_ d_lut_AOI21X1
AAOI21X1_13 [_686__bF_buf5 _816_ _817_] _39__0_ d_lut_AOI21X1
AAOI21X1_14 [_690__bF_buf0 _816_ _818_] _39__1_ d_lut_AOI21X1
AAOI21X1_15 [_692__bF_buf0 _816_ _819_] _39__2_ d_lut_AOI21X1
AAOI21X1_16 [_694__bF_buf1 _816_ _820_] _39__3_ d_lut_AOI21X1
AAOI21X1_17 [_686__bF_buf6 _837_ _838_] _35__0_ d_lut_AOI21X1
AAOI21X1_18 [_690__bF_buf1 _837_ _839_] _35__1_ d_lut_AOI21X1
AAOI21X1_19 [_692__bF_buf2 _837_ _840_] _35__2_ d_lut_AOI21X1
AAOI21X1_20 [_694__bF_buf1 _837_ _841_] _35__3_ d_lut_AOI21X1
AAOI21X1_21 [_694__bF_buf0 _892_ _895_] _24__3_ d_lut_AOI21X1
AAOI21X1_22 [_694__bF_buf0 _897_ _900_] _22__3_ d_lut_AOI21X1
AAOI21X1_23 [_692__bF_buf5 _727_ _729_] _55__2_ d_lut_AOI21X1
AAOI21X1_24 [_686__bF_buf3 _901_ _902_] _21__0_ d_lut_AOI21X1
AAOI21X1_25 [_690__bF_buf4 _901_ _903_] _21__1_ d_lut_AOI21X1
AAOI21X1_26 [_692__bF_buf7 _901_ _904_] _21__2_ d_lut_AOI21X1
AAOI21X1_27 [_694__bF_buf0 _901_ _905_] _21__3_ d_lut_AOI21X1
AAOI21X1_28 [_690__bF_buf4 _907_ _908_] _20__1_ d_lut_AOI21X1
AAOI21X1_29 [_692__bF_buf7 _907_ _909_] _20__2_ d_lut_AOI21X1
AAOI21X1_30 [_686__bF_buf3 _911_ _912_] _19__0_ d_lut_AOI21X1
AAOI21X1_31 [_690__bF_buf4 _911_ _913_] _19__1_ d_lut_AOI21X1
AAOI21X1_32 [_692__bF_buf0 _911_ _914_] _19__2_ d_lut_AOI21X1
AAOI21X1_33 [_694__bF_buf2 _911_ _915_] _19__3_ d_lut_AOI21X1
AAOI21X1_34 [_686__bF_buf5 _738_ _739_] _53__0_ d_lut_AOI21X1
AAOI21X1_35 [_686__bF_buf3 _916_ _917_] _18__0_ d_lut_AOI21X1
AAOI21X1_36 [_690__bF_buf4 _916_ _918_] _18__1_ d_lut_AOI21X1
AAOI21X1_37 [_692__bF_buf0 _916_ _65_] _18__2_ d_lut_AOI21X1
AAOI21X1_38 [_694__bF_buf2 _916_ _66_] _18__3_ d_lut_AOI21X1
AAOI21X1_39 [_686__bF_buf2 _72_ _73_] _16__0_ d_lut_AOI21X1
AAOI21X1_40 [_690__bF_buf4 _72_ _74_] _16__1_ d_lut_AOI21X1
AAOI21X1_41 [_692__bF_buf6 _72_ _75_] _16__2_ d_lut_AOI21X1
AAOI21X1_42 [_694__bF_buf4 _72_ _76_] _16__3_ d_lut_AOI21X1
AAOI21X1_43 [_686__bF_buf2 _77_ _78_] _15__0_ d_lut_AOI21X1
AAOI21X1_44 [_694__bF_buf4 _77_ _81_] _15__3_ d_lut_AOI21X1
AAOI21X1_45 [_690__bF_buf0 _738_ _740_] _53__1_ d_lut_AOI21X1
AAOI21X1_46 [_686__bF_buf2 _82_ _83_] _14__0_ d_lut_AOI21X1
AAOI21X1_47 [_690__bF_buf6 _82_ _84_] _14__1_ d_lut_AOI21X1
AAOI21X1_48 [_692__bF_buf6 _82_ _85_] _14__2_ d_lut_AOI21X1
AAOI21X1_49 [_694__bF_buf4 _82_ _86_] _14__3_ d_lut_AOI21X1
AAOI21X1_50 [_686__bF_buf7 _87_ _88_] _13__0_ d_lut_AOI21X1
AAOI21X1_51 [_694__bF_buf4 _87_ _91_] _13__3_ d_lut_AOI21X1
AAOI21X1_52 [_686__bF_buf7 _92_ _93_] _11__0_ d_lut_AOI21X1
AAOI21X1_53 [_694__bF_buf4 _92_ _96_] _11__3_ d_lut_AOI21X1
AAOI21X1_54 [_686__bF_buf2 _97_ _98_] _10__0_ d_lut_AOI21X1
AAOI21X1_55 [_694__bF_buf4 _97_ _101_] _10__3_ d_lut_AOI21X1
AAOI21X1_56 [_692__bF_buf2 _738_ _741_] _53__2_ d_lut_AOI21X1
AAOI21X1_57 [_686__bF_buf7 _102_ _103_] _9__0_ d_lut_AOI21X1
AAOI21X1_58 [_694__bF_buf4 _102_ _106_] _9__3_ d_lut_AOI21X1
AAOI21X1_59 [_692__bF_buf3 _160_ _162_] _61__2_ d_lut_AOI21X1
AAOI21X1_60 [_692__bF_buf1 _165_ _167_] _56__2_ d_lut_AOI21X1
AAOI21X1_61 [_673_ _676_ _204_] _205_ d_lut_AOI21X1
AAOI21X1_62 [_208_ _209_ addr_after_0_] _210_ d_lut_AOI21X1
AAOI21X1_63 [_208_ _209_ _204_] _213_ d_lut_AOI21X1
AAOI21X1_64 [_673_ _676_ addr_after_0_] _217_ d_lut_AOI21X1
AAOI21X1_65 [_199_ _200_ addr_after_3_] _232_ d_lut_AOI21X1
AAOI21X1_66 [mem_55__0_ _259_ _265_] _266_ d_lut_AOI21X1
AAOI21X1_67 [_694__bF_buf1 _738_ _742_] _53__3_ d_lut_AOI21X1
AAOI21X1_68 [mem_23__0_ _321_ _320_] _322_ d_lut_AOI21X1
AAOI21X1_69 [_328_ mem_4__0_ _331_] _332_ d_lut_AOI21X1
AAOI21X1_70 [mem_8__1_ _381_ _382_] _383_ d_lut_AOI21X1
AAOI21X1_71 [mem_55__1_ _259_ _397_] _398_ d_lut_AOI21X1
AAOI21X1_72 [mem_55__3_ _259_ _560_] _561_ d_lut_AOI21X1
AAOI21X1_73 [mem_23__3_ _321_ _585_] _586_ d_lut_AOI21X1
AAOI21X1_74 [mem_3__3_ _325_ _589_] _590_ d_lut_AOI21X1
AAOI21X1_75 [_654_ _919__5_ _620_] _655_ d_lut_AOI21X1
AAOI21X1_76 [_636_ _630_ _620_] _657_ d_lut_AOI21X1
AAOI21X1_77 [_658_ _659_ _660_] _661_ d_lut_AOI21X1
AAOI21X1_78 [_686__bF_buf3 _751_ _752_] _51__0_ d_lut_AOI21X1
AAOI21X1_79 [_665_ _667_ _919__2_] _668_ d_lut_AOI21X1
AAOI21X1_80 [_683_ _919__3_ _620_] _684_ d_lut_AOI21X1
AAOI21X1_81 [_690__bF_buf1 _751_ _753_] _51__1_ d_lut_AOI21X1
AAOI22X1_1 [_633_ _643_ _196_ _194_] _197_ d_lut_AOI22X1
AAOI22X1_2 [_649_ _620_ _653_ _655_] addr_after_5_ d_lut_AOI22X1
AAOI22X1_3 [_620_ _682_ _684_ _680_] addr_after_3_ d_lut_AOI22X1
AAOI22X1_4 [_253_ mem_49__0_ mem_50__0_ _255_] _256_ d_lut_AOI22X1
AAOI22X1_5 [_296_ mem_17__0_ mem_18__0_ _298_] _299_ d_lut_AOI22X1
AAOI22X1_6 [_308_ mem_21__0_ mem_22__0_ _310_] _311_ d_lut_AOI22X1
AAOI22X1_7 [_253_ mem_49__1_ mem_50__1_ _255_] _396_ d_lut_AOI22X1
AAOI22X1_8 [_253_ mem_49__3_ mem_50__3_ _255_] _559_ d_lut_AOI22X1
AAOI22X1_9 [_296_ mem_17__3_ mem_18__3_ _298_] _575_ d_lut_AOI22X1
AAOI22X1_10 [_308_ mem_21__3_ mem_22__3_ _310_] _579_ d_lut_AOI22X1
AAOI22X1_11 [_624_ next_ff2 store_ff2 _625_] _626_ d_lut_AOI22X1
ABUFX4_1 [_274_] _274__bF_buf4 d_lut_BUFX4
ABUFX2_1 [_920__1_] dout_1_ d_lut_BUFX2
ABUFX2_2 [_920__2_] dout_2_ d_lut_BUFX2
ABUFX2_3 [_920__3_] dout_3_ d_lut_BUFX2
ABUFX4_2 [_274_] _274__bF_buf3 d_lut_BUFX4
ABUFX2_4 [_919__0_] addr_0_ d_lut_BUFX2
ABUFX2_5 [_919__1_] addr_1_ d_lut_BUFX2
ABUFX2_6 [_919__2_] addr_2_ d_lut_BUFX2
ABUFX2_7 [_919__3_] addr_3_ d_lut_BUFX2
ABUFX2_8 [_919__4_] addr_4_ d_lut_BUFX2
ABUFX2_9 [_919__5_] addr_5_ d_lut_BUFX2
ABUFX2_10 [_920__0_] dout_0_ d_lut_BUFX2
ABUFX4_3 [rst_n] rst_n_hier0_bF_buf5 d_lut_BUFX4
ABUFX4_4 [clk] clk_hier0_bF_buf2 d_lut_BUFX4
ABUFX4_5 [_233_] _233__bF_buf3 d_lut_BUFX4
ABUFX4_6 [_233_] _233__bF_buf2 d_lut_BUFX4
ABUFX4_7 [_233_] _233__bF_buf1 d_lut_BUFX4
ABUFX4_8 [_233_] _233__bF_buf0 d_lut_BUFX4
ABUFX4_9 [clk] clk_hier0_bF_buf1 d_lut_BUFX4
ABUFX4_10 [clk] clk_hier0_bF_buf0 d_lut_BUFX4
ABUFX4_11 [rst_n_hier0_bF_buf3] rst_n_bF_buf41 d_lut_BUFX4
ABUFX4_12 [rst_n_hier0_bF_buf5] rst_n_bF_buf40 d_lut_BUFX4
ABUFX4_13 [rst_n_hier0_bF_buf1] rst_n_bF_buf39 d_lut_BUFX4
ABUFX4_14 [rst_n_hier0_bF_buf5] rst_n_bF_buf38 d_lut_BUFX4
ABUFX4_15 [rst_n_hier0_bF_buf2] rst_n_bF_buf37 d_lut_BUFX4
ABUFX4_16 [rst_n_hier0_bF_buf3] rst_n_bF_buf36 d_lut_BUFX4
ABUFX4_17 [rst_n_hier0_bF_buf4] rst_n_bF_buf35 d_lut_BUFX4
ABUFX4_18 [rst_n] rst_n_hier0_bF_buf4 d_lut_BUFX4
ABUFX4_19 [rst_n_hier0_bF_buf0] rst_n_bF_buf34 d_lut_BUFX4
ABUFX4_20 [rst_n_hier0_bF_buf5] rst_n_bF_buf33 d_lut_BUFX4
ABUFX4_21 [rst_n_hier0_bF_buf1] rst_n_bF_buf32 d_lut_BUFX4
ABUFX4_22 [rst_n_hier0_bF_buf2] rst_n_bF_buf31 d_lut_BUFX4
ABUFX4_23 [rst_n_hier0_bF_buf1] rst_n_bF_buf30 d_lut_BUFX4
ABUFX4_24 [rst_n_hier0_bF_buf1] rst_n_bF_buf29 d_lut_BUFX4
ABUFX4_25 [rst_n_hier0_bF_buf4] rst_n_bF_buf28 d_lut_BUFX4
ABUFX4_26 [rst_n_hier0_bF_buf4] rst_n_bF_buf27 d_lut_BUFX4
ABUFX4_27 [rst_n_hier0_bF_buf4] rst_n_bF_buf26 d_lut_BUFX4
ABUFX4_28 [rst_n_hier0_bF_buf5] rst_n_bF_buf25 d_lut_BUFX4
ABUFX4_29 [rst_n] rst_n_hier0_bF_buf3 d_lut_BUFX4
ABUFX4_30 [rst_n_hier0_bF_buf1] rst_n_bF_buf24 d_lut_BUFX4
ABUFX4_31 [rst_n_hier0_bF_buf3] rst_n_bF_buf23 d_lut_BUFX4
ABUFX4_32 [rst_n_hier0_bF_buf3] rst_n_bF_buf22 d_lut_BUFX4
ABUFX4_33 [rst_n_hier0_bF_buf4] rst_n_bF_buf21 d_lut_BUFX4
ABUFX4_34 [rst_n_hier0_bF_buf0] rst_n_bF_buf20 d_lut_BUFX4
ABUFX4_35 [rst_n_hier0_bF_buf2] rst_n_bF_buf19 d_lut_BUFX4
ABUFX4_36 [rst_n_hier0_bF_buf0] rst_n_bF_buf18 d_lut_BUFX4
ABUFX4_37 [rst_n_hier0_bF_buf3] rst_n_bF_buf17 d_lut_BUFX4
ABUFX4_38 [rst_n_hier0_bF_buf4] rst_n_bF_buf16 d_lut_BUFX4
ABUFX4_39 [rst_n_hier0_bF_buf0] rst_n_bF_buf15 d_lut_BUFX4
ABUFX4_40 [rst_n] rst_n_hier0_bF_buf2 d_lut_BUFX4
ABUFX4_41 [rst_n_hier0_bF_buf5] rst_n_bF_buf14 d_lut_BUFX4
ABUFX4_42 [rst_n_hier0_bF_buf3] rst_n_bF_buf13 d_lut_BUFX4
ABUFX4_43 [rst_n_hier0_bF_buf5] rst_n_bF_buf12 d_lut_BUFX4
ABUFX4_44 [rst_n_hier0_bF_buf3] rst_n_bF_buf11 d_lut_BUFX4
ABUFX4_45 [rst_n_hier0_bF_buf5] rst_n_bF_buf10 d_lut_BUFX4
ABUFX4_46 [rst_n_hier0_bF_buf1] rst_n_bF_buf9 d_lut_BUFX4
ABUFX4_47 [rst_n_hier0_bF_buf4] rst_n_bF_buf8 d_lut_BUFX4
ABUFX4_48 [rst_n_hier0_bF_buf2] rst_n_bF_buf7 d_lut_BUFX4
ABUFX4_49 [rst_n_hier0_bF_buf0] rst_n_bF_buf6 d_lut_BUFX4
ABUFX4_50 [rst_n_hier0_bF_buf1] rst_n_bF_buf5 d_lut_BUFX4
ABUFX4_51 [rst_n] rst_n_hier0_bF_buf1 d_lut_BUFX4
ABUFX4_52 [rst_n_hier0_bF_buf2] rst_n_bF_buf4 d_lut_BUFX4
ABUFX4_53 [rst_n_hier0_bF_buf2] rst_n_bF_buf3 d_lut_BUFX4
ABUFX4_54 [rst_n_hier0_bF_buf2] rst_n_bF_buf2 d_lut_BUFX4
ABUFX4_55 [rst_n_hier0_bF_buf0] rst_n_bF_buf1 d_lut_BUFX4
ABUFX4_56 [rst_n_hier0_bF_buf0] rst_n_bF_buf0 d_lut_BUFX4
ABUFX4_57 [_197_] _197__bF_buf3 d_lut_BUFX4
ABUFX4_58 [_197_] _197__bF_buf2 d_lut_BUFX4
ABUFX4_59 [_197_] _197__bF_buf1 d_lut_BUFX4
ABUFX4_60 [_197_] _197__bF_buf0 d_lut_BUFX4
ABUFX4_61 [_690_] _690__bF_buf7 d_lut_BUFX4
ABUFX4_62 [rst_n] rst_n_hier0_bF_buf0 d_lut_BUFX4
ABUFX4_63 [_690_] _690__bF_buf6 d_lut_BUFX4
ABUFX4_64 [_690_] _690__bF_buf5 d_lut_BUFX4
ABUFX4_65 [_690_] _690__bF_buf4 d_lut_BUFX4
ABUFX4_66 [_690_] _690__bF_buf3 d_lut_BUFX4
ABUFX4_67 [_690_] _690__bF_buf2 d_lut_BUFX4
ABUFX4_68 [_690_] _690__bF_buf1 d_lut_BUFX4
ABUFX4_69 [_690_] _690__bF_buf0 d_lut_BUFX4
ABUFX4_70 [_692_] _692__bF_buf7 d_lut_BUFX4
ABUFX4_71 [_692_] _692__bF_buf6 d_lut_BUFX4
ABUFX4_72 [_692_] _692__bF_buf5 d_lut_BUFX4
ABUFX4_73 [clk] clk_hier0_bF_buf5 d_lut_BUFX4
ABUFX4_74 [_692_] _692__bF_buf4 d_lut_BUFX4
ABUFX4_75 [_692_] _692__bF_buf3 d_lut_BUFX4
ABUFX4_76 [_692_] _692__bF_buf2 d_lut_BUFX4
ABUFX4_77 [_692_] _692__bF_buf1 d_lut_BUFX4
ABUFX4_78 [_692_] _692__bF_buf0 d_lut_BUFX4
ABUFX4_79 [_686_] _686__bF_buf7 d_lut_BUFX4
ABUFX4_80 [_686_] _686__bF_buf6 d_lut_BUFX4
ABUFX4_81 [_686_] _686__bF_buf5 d_lut_BUFX4
ABUFX4_82 [_686_] _686__bF_buf4 d_lut_BUFX4
ABUFX4_83 [_686_] _686__bF_buf3 d_lut_BUFX4
ABUFX4_84 [clk] clk_hier0_bF_buf4 d_lut_BUFX4
ABUFX4_85 [_686_] _686__bF_buf2 d_lut_BUFX4
ABUFX4_86 [_686_] _686__bF_buf1 d_lut_BUFX4
ABUFX4_87 [_686_] _686__bF_buf0 d_lut_BUFX4
ABUFX4_88 [_263_] _263__bF_buf4 d_lut_BUFX4
ABUFX4_89 [_263_] _263__bF_buf3 d_lut_BUFX4
ABUFX4_90 [_263_] _263__bF_buf2 d_lut_BUFX4
ABUFX4_91 [_263_] _263__bF_buf1 d_lut_BUFX4
ABUFX4_92 [_263_] _263__bF_buf0 d_lut_BUFX4
ABUFX4_93 [_694_] _694__bF_buf7 d_lut_BUFX4
ABUFX4_94 [_694_] _694__bF_buf6 d_lut_BUFX4
ABUFX4_95 [clk] clk_hier0_bF_buf3 d_lut_BUFX4
ABUFX4_96 [_694_] _694__bF_buf5 d_lut_BUFX4
ABUFX4_97 [_694_] _694__bF_buf4 d_lut_BUFX4
ABUFX4_98 [_694_] _694__bF_buf3 d_lut_BUFX4
ABUFX4_99 [_694_] _694__bF_buf2 d_lut_BUFX4
ABUFX4_100 [_694_] _694__bF_buf1 d_lut_BUFX4
ABUFX4_101 [_694_] _694__bF_buf0 d_lut_BUFX4
ABUFX4_102 [_274_] _274__bF_buf2 d_lut_BUFX4
ABUFX4_103 [_274_] _274__bF_buf1 d_lut_BUFX4
ABUFX4_104 [_274_] _274__bF_buf0 d_lut_BUFX4
ABUFX4_105 [_233_] _233__bF_buf4 d_lut_BUFX4
ACLKBUF1_1 [clk_hier0_bF_buf0] clk_bF_buf41 d_lut_CLKBUF1
ACLKBUF1_2 [clk_hier0_bF_buf5] clk_bF_buf32 d_lut_CLKBUF1
ACLKBUF1_3 [clk_hier0_bF_buf3] clk_bF_buf31 d_lut_CLKBUF1
ACLKBUF1_4 [clk_hier0_bF_buf1] clk_bF_buf30 d_lut_CLKBUF1
ACLKBUF1_5 [clk_hier0_bF_buf1] clk_bF_buf29 d_lut_CLKBUF1
ACLKBUF1_6 [clk_hier0_bF_buf3] clk_bF_buf28 d_lut_CLKBUF1
ACLKBUF1_7 [clk_hier0_bF_buf1] clk_bF_buf27 d_lut_CLKBUF1
ACLKBUF1_8 [clk_hier0_bF_buf4] clk_bF_buf26 d_lut_CLKBUF1
ACLKBUF1_9 [clk_hier0_bF_buf3] clk_bF_buf25 d_lut_CLKBUF1
ACLKBUF1_10 [clk_hier0_bF_buf4] clk_bF_buf24 d_lut_CLKBUF1
ACLKBUF1_11 [clk_hier0_bF_buf4] clk_bF_buf23 d_lut_CLKBUF1
ACLKBUF1_12 [clk_hier0_bF_buf0] clk_bF_buf40 d_lut_CLKBUF1
ACLKBUF1_13 [clk_hier0_bF_buf0] clk_bF_buf22 d_lut_CLKBUF1
ACLKBUF1_14 [clk_hier0_bF_buf3] clk_bF_buf21 d_lut_CLKBUF1
ACLKBUF1_15 [clk_hier0_bF_buf4] clk_bF_buf20 d_lut_CLKBUF1
ACLKBUF1_16 [clk_hier0_bF_buf2] clk_bF_buf19 d_lut_CLKBUF1
ACLKBUF1_17 [clk_hier0_bF_buf5] clk_bF_buf18 d_lut_CLKBUF1
ACLKBUF1_18 [clk_hier0_bF_buf0] clk_bF_buf17 d_lut_CLKBUF1
ACLKBUF1_19 [clk_hier0_bF_buf4] clk_bF_buf16 d_lut_CLKBUF1
ACLKBUF1_20 [clk_hier0_bF_buf3] clk_bF_buf15 d_lut_CLKBUF1
ACLKBUF1_21 [clk_hier0_bF_buf1] clk_bF_buf14 d_lut_CLKBUF1
ACLKBUF1_22 [clk_hier0_bF_buf2] clk_bF_buf13 d_lut_CLKBUF1
ACLKBUF1_23 [clk_hier0_bF_buf5] clk_bF_buf39 d_lut_CLKBUF1
ACLKBUF1_24 [clk_hier0_bF_buf2] clk_bF_buf12 d_lut_CLKBUF1
ACLKBUF1_25 [clk_hier0_bF_buf4] clk_bF_buf11 d_lut_CLKBUF1
ACLKBUF1_26 [clk_hier0_bF_buf2] clk_bF_buf10 d_lut_CLKBUF1
ACLKBUF1_27 [clk_hier0_bF_buf5] clk_bF_buf9 d_lut_CLKBUF1
ACLKBUF1_28 [clk_hier0_bF_buf2] clk_bF_buf8 d_lut_CLKBUF1
ACLKBUF1_29 [clk_hier0_bF_buf4] clk_bF_buf7 d_lut_CLKBUF1
ACLKBUF1_30 [clk_hier0_bF_buf0] clk_bF_buf6 d_lut_CLKBUF1
ACLKBUF1_31 [clk_hier0_bF_buf5] clk_bF_buf5 d_lut_CLKBUF1
ACLKBUF1_32 [clk_hier0_bF_buf2] clk_bF_buf4 d_lut_CLKBUF1
ACLKBUF1_33 [clk_hier0_bF_buf3] clk_bF_buf3 d_lut_CLKBUF1
ACLKBUF1_34 [clk_hier0_bF_buf5] clk_bF_buf38 d_lut_CLKBUF1
ACLKBUF1_35 [clk_hier0_bF_buf3] clk_bF_buf2 d_lut_CLKBUF1
ACLKBUF1_36 [clk_hier0_bF_buf0] clk_bF_buf1 d_lut_CLKBUF1
ACLKBUF1_37 [clk_hier0_bF_buf1] clk_bF_buf0 d_lut_CLKBUF1
ACLKBUF1_38 [clk_hier0_bF_buf0] clk_bF_buf37 d_lut_CLKBUF1
ACLKBUF1_39 [clk_hier0_bF_buf1] clk_bF_buf36 d_lut_CLKBUF1
ACLKBUF1_40 [clk_hier0_bF_buf2] clk_bF_buf35 d_lut_CLKBUF1
ACLKBUF1_41 [clk_hier0_bF_buf1] clk_bF_buf34 d_lut_CLKBUF1
ACLKBUF1_42 [clk_hier0_bF_buf5] clk_bF_buf33 d_lut_CLKBUF1
ADFFSR_1 addr_after_0_ clk_bF_buf19 ~vdd ~rst_n_bF_buf17 _919__0_ NULL ddflop
ADFFSR_2 _0__3_ clk_bF_buf32 ~vdd ~rst_n_bF_buf38 _920__3_ NULL ddflop
ADFFSR_3 _15__1_ clk_bF_buf8 ~vdd ~rst_n_bF_buf19 mem_22__1_ NULL ddflop
ADFFSR_4 _15__2_ clk_bF_buf31 ~vdd ~rst_n_bF_buf21 mem_22__2_ NULL ddflop
ADFFSR_5 _15__3_ clk_bF_buf8 ~vdd ~rst_n_bF_buf19 mem_22__3_ NULL ddflop
ADFFSR_6 _16__0_ clk_bF_buf25 ~vdd ~rst_n_bF_buf31 mem_23__0_ NULL ddflop
ADFFSR_7 _16__1_ clk_bF_buf4 ~vdd ~rst_n_bF_buf4 mem_23__1_ NULL ddflop
ADFFSR_8 _16__2_ clk_bF_buf13 ~vdd ~rst_n_bF_buf4 mem_23__2_ NULL ddflop
ADFFSR_9 _16__3_ clk_bF_buf35 ~vdd ~rst_n_bF_buf3 mem_23__3_ NULL ddflop
ADFFSR_10 _17__0_ clk_bF_buf13 ~vdd ~rst_n_bF_buf4 mem_24__0_ NULL ddflop
ADFFSR_11 _17__1_ clk_bF_buf13 ~vdd ~rst_n_bF_buf4 mem_24__1_ NULL ddflop
ADFFSR_12 _17__2_ clk_bF_buf4 ~vdd ~rst_n_bF_buf7 mem_24__2_ NULL ddflop
ADFFSR_13 _1__0_ clk_bF_buf18 ~vdd ~rst_n_bF_buf10 mem_0__0_ NULL ddflop
ADFFSR_14 _17__3_ clk_bF_buf4 ~vdd ~rst_n_bF_buf37 mem_24__3_ NULL ddflop
ADFFSR_15 _18__0_ clk_bF_buf22 ~vdd ~rst_n_bF_buf28 mem_25__0_ NULL ddflop
ADFFSR_16 _18__1_ clk_bF_buf1 ~vdd ~rst_n_bF_buf27 mem_25__1_ NULL ddflop
ADFFSR_17 _18__2_ clk_bF_buf22 ~vdd ~rst_n_bF_buf27 mem_25__2_ NULL ddflop
ADFFSR_18 _18__3_ clk_bF_buf22 ~vdd ~rst_n_bF_buf21 mem_25__3_ NULL ddflop
ADFFSR_19 _19__0_ clk_bF_buf41 ~vdd ~rst_n_bF_buf8 mem_26__0_ NULL ddflop
ADFFSR_20 _19__1_ clk_bF_buf22 ~vdd ~rst_n_bF_buf27 mem_26__1_ NULL ddflop
ADFFSR_21 _19__2_ clk_bF_buf1 ~vdd ~rst_n_bF_buf8 mem_26__2_ NULL ddflop
ADFFSR_22 _19__3_ clk_bF_buf22 ~vdd ~rst_n_bF_buf27 mem_26__3_ NULL ddflop
ADFFSR_23 _20__0_ clk_bF_buf31 ~vdd ~rst_n_bF_buf16 mem_27__0_ NULL ddflop
ADFFSR_24 _1__1_ clk_bF_buf26 ~vdd ~rst_n_bF_buf20 mem_0__1_ NULL ddflop
ADFFSR_25 _20__1_ clk_bF_buf1 ~vdd ~rst_n_bF_buf7 mem_27__1_ NULL ddflop
ADFFSR_26 _20__2_ clk_bF_buf31 ~vdd ~rst_n_bF_buf37 mem_27__2_ NULL ddflop
ADFFSR_27 _20__3_ clk_bF_buf28 ~vdd ~rst_n_bF_buf13 mem_27__3_ NULL ddflop
ADFFSR_28 _21__0_ clk_bF_buf31 ~vdd ~rst_n_bF_buf21 mem_28__0_ NULL ddflop
ADFFSR_29 _21__1_ clk_bF_buf1 ~vdd ~rst_n_bF_buf27 mem_28__1_ NULL ddflop
ADFFSR_30 _21__2_ clk_bF_buf22 ~vdd ~rst_n_bF_buf21 mem_28__2_ NULL ddflop
ADFFSR_31 _21__3_ clk_bF_buf1 ~vdd ~rst_n_bF_buf27 mem_28__3_ NULL ddflop
ADFFSR_32 _22__0_ clk_bF_buf25 ~vdd ~rst_n_bF_buf31 mem_29__0_ NULL ddflop
ADFFSR_33 _22__1_ clk_bF_buf3 ~vdd ~rst_n_bF_buf23 mem_29__1_ NULL ddflop
ADFFSR_34 _22__2_ clk_bF_buf29 ~vdd ~rst_n_bF_buf29 mem_29__2_ NULL ddflop
ADFFSR_35 _1__2_ clk_bF_buf11 ~vdd ~rst_n_bF_buf14 mem_0__2_ NULL ddflop
ADFFSR_36 _22__3_ clk_bF_buf21 ~vdd ~rst_n_bF_buf23 mem_29__3_ NULL ddflop
ADFFSR_37 _24__0_ clk_bF_buf3 ~vdd ~rst_n_bF_buf13 mem_30__0_ NULL ddflop
ADFFSR_38 _24__1_ clk_bF_buf30 ~vdd ~rst_n_bF_buf24 mem_30__1_ NULL ddflop
ADFFSR_39 _24__2_ clk_bF_buf0 ~vdd ~rst_n_bF_buf9 mem_30__2_ NULL ddflop
ADFFSR_40 _24__3_ clk_bF_buf21 ~vdd ~rst_n_bF_buf23 mem_30__3_ NULL ddflop
ADFFSR_41 _25__0_ clk_bF_buf15 ~vdd ~rst_n_bF_buf11 mem_31__0_ NULL ddflop
ADFFSR_42 _25__1_ clk_bF_buf15 ~vdd ~rst_n_bF_buf11 mem_31__1_ NULL ddflop
ADFFSR_43 _25__2_ clk_bF_buf28 ~vdd ~rst_n_bF_buf13 mem_31__2_ NULL ddflop
ADFFSR_44 _25__3_ clk_bF_buf29 ~vdd ~rst_n_bF_buf29 mem_31__3_ NULL ddflop
ADFFSR_45 _26__0_ clk_bF_buf34 ~vdd ~rst_n_bF_buf9 mem_32__0_ NULL ddflop
ADFFSR_46 _1__3_ clk_bF_buf20 ~vdd ~rst_n_bF_buf33 mem_0__3_ NULL ddflop
ADFFSR_47 _26__1_ clk_bF_buf21 ~vdd ~rst_n_bF_buf23 mem_32__1_ NULL ddflop
ADFFSR_48 _26__2_ clk_bF_buf28 ~vdd ~rst_n_bF_buf13 mem_32__2_ NULL ddflop
ADFFSR_49 _26__3_ clk_bF_buf3 ~vdd ~rst_n_bF_buf29 mem_32__3_ NULL ddflop
ADFFSR_50 _27__0_ clk_bF_buf9 ~vdd ~rst_n_bF_buf14 mem_33__0_ NULL ddflop
ADFFSR_51 _27__1_ clk_bF_buf40 ~vdd ~rst_n_bF_buf20 mem_33__1_ NULL ddflop
ADFFSR_52 _27__2_ clk_bF_buf2 ~vdd ~rst_n_bF_buf36 mem_33__2_ NULL ddflop
ADFFSR_53 _27__3_ clk_bF_buf11 ~vdd ~rst_n_bF_buf14 mem_33__3_ NULL ddflop
ADFFSR_54 _28__0_ clk_bF_buf11 ~vdd ~rst_n_bF_buf18 mem_34__0_ NULL ddflop
ADFFSR_55 _28__1_ clk_bF_buf40 ~vdd ~rst_n_bF_buf20 mem_34__1_ NULL ddflop
ADFFSR_56 _28__2_ clk_bF_buf15 ~vdd ~rst_n_bF_buf36 mem_34__2_ NULL ddflop
ADFFSR_57 _12__0_ clk_bF_buf36 ~vdd ~rst_n_bF_buf24 mem_1__0_ NULL ddflop
ADFFSR_58 _28__3_ clk_bF_buf37 ~vdd ~rst_n_bF_buf26 mem_34__3_ NULL ddflop
ADFFSR_59 _29__0_ clk_bF_buf18 ~vdd ~rst_n_bF_buf40 mem_35__0_ NULL ddflop
ADFFSR_60 _29__1_ clk_bF_buf33 ~vdd ~rst_n_bF_buf40 mem_35__1_ NULL ddflop
ADFFSR_61 _29__2_ clk_bF_buf18 ~vdd ~rst_n_bF_buf40 mem_35__2_ NULL ddflop
ADFFSR_62 _29__3_ clk_bF_buf9 ~vdd ~rst_n_bF_buf40 mem_35__3_ NULL ddflop
ADFFSR_63 _30__0_ clk_bF_buf18 ~vdd ~rst_n_bF_buf40 mem_36__0_ NULL ddflop
ADFFSR_64 _30__1_ clk_bF_buf33 ~vdd ~rst_n_bF_buf25 mem_36__1_ NULL ddflop
ADFFSR_65 _30__2_ clk_bF_buf39 ~vdd ~rst_n_bF_buf12 mem_36__2_ NULL ddflop
ADFFSR_66 _30__3_ clk_bF_buf9 ~vdd ~rst_n_bF_buf10 mem_36__3_ NULL ddflop
ADFFSR_67 _31__0_ clk_bF_buf7 ~vdd ~rst_n_bF_buf0 mem_37__0_ NULL ddflop
ADFFSR_68 _12__1_ clk_bF_buf14 ~vdd ~rst_n_bF_buf41 mem_1__1_ NULL ddflop
ADFFSR_69 _31__1_ clk_bF_buf39 ~vdd ~rst_n_bF_buf40 mem_37__1_ NULL ddflop
ADFFSR_70 _31__2_ clk_bF_buf23 ~vdd ~rst_n_bF_buf15 mem_37__2_ NULL ddflop
ADFFSR_71 _31__3_ clk_bF_buf39 ~vdd ~rst_n_bF_buf12 mem_37__3_ NULL ddflop
ADFFSR_72 _32__0_ clk_bF_buf7 ~vdd ~rst_n_bF_buf0 mem_38__0_ NULL ddflop
ADFFSR_73 _32__1_ clk_bF_buf39 ~vdd ~rst_n_bF_buf12 mem_38__1_ NULL ddflop
ADFFSR_74 _32__2_ clk_bF_buf9 ~vdd ~rst_n_bF_buf10 mem_38__2_ NULL ddflop
ADFFSR_75 _32__3_ clk_bF_buf20 ~vdd ~rst_n_bF_buf33 mem_38__3_ NULL ddflop
ADFFSR_76 _33__0_ clk_bF_buf9 ~vdd ~rst_n_bF_buf10 mem_39__0_ NULL ddflop
ADFFSR_77 _33__1_ clk_bF_buf26 ~vdd ~rst_n_bF_buf18 mem_39__1_ NULL ddflop
ADFFSR_78 _33__2_ clk_bF_buf20 ~vdd ~rst_n_bF_buf33 mem_39__2_ NULL ddflop
ADFFSR_79 _12__2_ clk_bF_buf3 ~vdd ~rst_n_bF_buf23 mem_1__2_ NULL ddflop
ADFFSR_80 _33__3_ clk_bF_buf16 ~vdd ~rst_n_bF_buf15 mem_39__3_ NULL ddflop
ADFFSR_81 _35__0_ clk_bF_buf11 ~vdd ~rst_n_bF_buf15 mem_40__0_ NULL ddflop
ADFFSR_82 _35__1_ clk_bF_buf16 ~vdd ~rst_n_bF_buf18 mem_40__1_ NULL ddflop
ADFFSR_83 _35__2_ clk_bF_buf16 ~vdd ~rst_n_bF_buf15 mem_40__2_ NULL ddflop
ADFFSR_84 _35__3_ clk_bF_buf16 ~vdd ~rst_n_bF_buf15 mem_40__3_ NULL ddflop
ADFFSR_85 _36__0_ clk_bF_buf17 ~vdd ~rst_n_bF_buf35 mem_41__0_ NULL ddflop
ADFFSR_86 _36__1_ clk_bF_buf17 ~vdd ~rst_n_bF_buf8 mem_41__1_ NULL ddflop
ADFFSR_87 _36__2_ clk_bF_buf1 ~vdd ~rst_n_bF_buf27 mem_41__2_ NULL ddflop
ADFFSR_88 _36__3_ clk_bF_buf22 ~vdd ~rst_n_bF_buf28 mem_41__3_ NULL ddflop
ADFFSR_89 _37__0_ clk_bF_buf41 ~vdd ~rst_n_bF_buf35 mem_42__0_ NULL ddflop
ADFFSR_90 _12__3_ clk_bF_buf14 ~vdd ~rst_n_bF_buf41 mem_1__3_ NULL ddflop
ADFFSR_91 _37__1_ clk_bF_buf41 ~vdd ~rst_n_bF_buf28 mem_42__1_ NULL ddflop
ADFFSR_92 _37__2_ clk_bF_buf17 ~vdd ~rst_n_bF_buf8 mem_42__2_ NULL ddflop
ADFFSR_93 _37__3_ clk_bF_buf17 ~vdd ~rst_n_bF_buf8 mem_42__3_ NULL ddflop
ADFFSR_94 _38__0_ clk_bF_buf24 ~vdd ~rst_n_bF_buf34 mem_43__0_ NULL ddflop
ADFFSR_95 _38__1_ clk_bF_buf6 ~vdd ~rst_n_bF_buf6 mem_43__1_ NULL ddflop
ADFFSR_96 _38__2_ clk_bF_buf26 ~vdd ~rst_n_bF_buf0 mem_43__2_ NULL ddflop
ADFFSR_97 _38__3_ clk_bF_buf18 ~vdd ~rst_n_bF_buf10 mem_43__3_ NULL ddflop
ADFFSR_98 _39__0_ clk_bF_buf6 ~vdd ~rst_n_bF_buf6 mem_44__0_ NULL ddflop
ADFFSR_99 _39__1_ clk_bF_buf6 ~vdd ~rst_n_bF_buf34 mem_44__1_ NULL ddflop
ADFFSR_100 _39__2_ clk_bF_buf17 ~vdd ~rst_n_bF_buf8 mem_44__2_ NULL ddflop
ADFFSR_101 _23__0_ clk_bF_buf36 ~vdd ~rst_n_bF_buf32 mem_2__0_ NULL ddflop
ADFFSR_102 _39__3_ clk_bF_buf24 ~vdd ~rst_n_bF_buf34 mem_44__3_ NULL ddflop
ADFFSR_103 _40__0_ clk_bF_buf39 ~vdd ~rst_n_bF_buf12 mem_45__0_ NULL ddflop
ADFFSR_104 _40__1_ clk_bF_buf18 ~vdd ~rst_n_bF_buf10 mem_45__1_ NULL ddflop
ADFFSR_105 _40__2_ clk_bF_buf20 ~vdd ~rst_n_bF_buf33 mem_45__2_ NULL ddflop
ADFFSR_106 _40__3_ clk_bF_buf39 ~vdd ~rst_n_bF_buf12 mem_45__3_ NULL ddflop
ADFFSR_107 _41__0_ clk_bF_buf11 ~vdd ~rst_n_bF_buf18 mem_46__0_ NULL ddflop
ADFFSR_108 _41__1_ clk_bF_buf20 ~vdd ~rst_n_bF_buf33 mem_46__1_ NULL ddflop
ADFFSR_109 _41__2_ clk_bF_buf39 ~vdd ~rst_n_bF_buf12 mem_46__2_ NULL ddflop
ADFFSR_110 _41__3_ clk_bF_buf20 ~vdd ~rst_n_bF_buf33 mem_46__3_ NULL ddflop
ADFFSR_111 _42__0_ clk_bF_buf5 ~vdd ~rst_n_bF_buf25 mem_47__0_ NULL ddflop
ADFFSR_112 addr_after_1_ clk_bF_buf12 ~vdd ~rst_n_bF_buf22 _919__1_ NULL ddflop
ADFFSR_113 _23__1_ clk_bF_buf30 ~vdd ~rst_n_bF_buf41 mem_2__1_ NULL ddflop
ADFFSR_114 _42__1_ clk_bF_buf33 ~vdd ~rst_n_bF_buf38 mem_47__1_ NULL ddflop
ADFFSR_115 _42__2_ clk_bF_buf2 ~vdd ~rst_n_bF_buf36 mem_47__2_ NULL ddflop
ADFFSR_116 _42__3_ clk_bF_buf5 ~vdd ~rst_n_bF_buf25 mem_47__3_ NULL ddflop
ADFFSR_117 _43__0_ clk_bF_buf5 ~vdd ~rst_n_bF_buf14 mem_48__0_ NULL ddflop
ADFFSR_118 _43__1_ clk_bF_buf5 ~vdd ~rst_n_bF_buf38 mem_48__1_ NULL ddflop
ADFFSR_119 _43__2_ clk_bF_buf2 ~vdd ~rst_n_bF_buf36 mem_48__2_ NULL ddflop
ADFFSR_120 _43__3_ clk_bF_buf5 ~vdd ~rst_n_bF_buf25 mem_48__3_ NULL ddflop
ADFFSR_121 _44__0_ clk_bF_buf33 ~vdd ~rst_n_bF_buf38 mem_49__0_ NULL ddflop
ADFFSR_122 _44__1_ clk_bF_buf38 ~vdd ~rst_n_bF_buf30 mem_49__1_ NULL ddflop
ADFFSR_123 _44__2_ clk_bF_buf38 ~vdd ~rst_n_bF_buf30 mem_49__2_ NULL ddflop
ADFFSR_124 _23__2_ clk_bF_buf30 ~vdd ~rst_n_bF_buf29 mem_2__2_ NULL ddflop
ADFFSR_125 _44__3_ clk_bF_buf32 ~vdd ~rst_n_bF_buf5 mem_49__3_ NULL ddflop
ADFFSR_126 _46__0_ clk_bF_buf32 ~vdd ~rst_n_bF_buf38 mem_50__0_ NULL ddflop
ADFFSR_127 _46__1_ clk_bF_buf33 ~vdd ~rst_n_bF_buf38 mem_50__1_ NULL ddflop
ADFFSR_128 _46__2_ clk_bF_buf33 ~vdd ~rst_n_bF_buf25 mem_50__2_ NULL ddflop
ADFFSR_129 _46__3_ clk_bF_buf32 ~vdd ~rst_n_bF_buf38 mem_50__3_ NULL ddflop
ADFFSR_130 _47__0_ clk_bF_buf37 ~vdd ~rst_n_bF_buf28 mem_51__0_ NULL ddflop
ADFFSR_131 _47__1_ clk_bF_buf40 ~vdd ~rst_n_bF_buf26 mem_51__1_ NULL ddflop
ADFFSR_132 _47__2_ clk_bF_buf40 ~vdd ~rst_n_bF_buf20 mem_51__2_ NULL ddflop
ADFFSR_133 _47__3_ clk_bF_buf37 ~vdd ~rst_n_bF_buf28 mem_51__3_ NULL ddflop
ADFFSR_134 _48__0_ clk_bF_buf41 ~vdd ~rst_n_bF_buf35 mem_52__0_ NULL ddflop
ADFFSR_135 _23__3_ clk_bF_buf14 ~vdd ~rst_n_bF_buf22 mem_2__3_ NULL ddflop
ADFFSR_136 _48__1_ clk_bF_buf41 ~vdd ~rst_n_bF_buf26 mem_52__1_ NULL ddflop
ADFFSR_137 _48__2_ clk_bF_buf26 ~vdd ~rst_n_bF_buf20 mem_52__2_ NULL ddflop
ADFFSR_138 _48__3_ clk_bF_buf40 ~vdd ~rst_n_bF_buf20 mem_52__3_ NULL ddflop
ADFFSR_139 _49__0_ clk_bF_buf40 ~vdd ~rst_n_bF_buf26 mem_53__0_ NULL ddflop
ADFFSR_140 _49__1_ clk_bF_buf26 ~vdd ~rst_n_bF_buf26 mem_53__1_ NULL ddflop
ADFFSR_141 _49__2_ clk_bF_buf26 ~vdd ~rst_n_bF_buf26 mem_53__2_ NULL ddflop
ADFFSR_142 _49__3_ clk_bF_buf41 ~vdd ~rst_n_bF_buf26 mem_53__3_ NULL ddflop
ADFFSR_143 _50__0_ clk_bF_buf7 ~vdd ~rst_n_bF_buf1 mem_54__0_ NULL ddflop
ADFFSR_144 _50__1_ clk_bF_buf7 ~vdd ~rst_n_bF_buf1 mem_54__1_ NULL ddflop
ADFFSR_145 _50__2_ clk_bF_buf7 ~vdd ~rst_n_bF_buf0 mem_54__2_ NULL ddflop
ADFFSR_146 _34__0_ clk_bF_buf34 ~vdd ~rst_n_bF_buf39 mem_3__0_ NULL ddflop
ADFFSR_147 _50__3_ clk_bF_buf40 ~vdd ~rst_n_bF_buf28 mem_54__3_ NULL ddflop
ADFFSR_148 _51__0_ clk_bF_buf28 ~vdd ~rst_n_bF_buf13 mem_55__0_ NULL ddflop
ADFFSR_149 _51__1_ clk_bF_buf28 ~vdd ~rst_n_bF_buf13 mem_55__1_ NULL ddflop
ADFFSR_150 _51__2_ clk_bF_buf37 ~vdd ~rst_n_bF_buf28 mem_55__2_ NULL ddflop
ADFFSR_151 _51__3_ clk_bF_buf28 ~vdd ~rst_n_bF_buf16 mem_55__3_ NULL ddflop
ADFFSR_152 _52__0_ clk_bF_buf16 ~vdd ~rst_n_bF_buf18 mem_56__0_ NULL ddflop
ADFFSR_153 _52__1_ clk_bF_buf20 ~vdd ~rst_n_bF_buf33 mem_56__1_ NULL ddflop
ADFFSR_154 _52__2_ clk_bF_buf11 ~vdd ~rst_n_bF_buf18 mem_56__2_ NULL ddflop
ADFFSR_155 _52__3_ clk_bF_buf5 ~vdd ~rst_n_bF_buf14 mem_56__3_ NULL ddflop
ADFFSR_156 _53__0_ clk_bF_buf24 ~vdd ~rst_n_bF_buf6 mem_57__0_ NULL ddflop
ADFFSR_157 _34__1_ clk_bF_buf30 ~vdd ~rst_n_bF_buf41 mem_3__1_ NULL ddflop
ADFFSR_158 _53__1_ clk_bF_buf41 ~vdd ~rst_n_bF_buf35 mem_57__1_ NULL ddflop
ADFFSR_159 _53__2_ clk_bF_buf23 ~vdd ~rst_n_bF_buf0 mem_57__2_ NULL ddflop
ADFFSR_160 _53__3_ clk_bF_buf6 ~vdd ~rst_n_bF_buf35 mem_57__3_ NULL ddflop
ADFFSR_161 _54__0_ clk_bF_buf23 ~vdd ~rst_n_bF_buf6 mem_58__0_ NULL ddflop
ADFFSR_162 _54__1_ clk_bF_buf24 ~vdd ~rst_n_bF_buf34 mem_58__1_ NULL ddflop
ADFFSR_163 _54__2_ clk_bF_buf24 ~vdd ~rst_n_bF_buf34 mem_58__2_ NULL ddflop
ADFFSR_164 _54__3_ clk_bF_buf23 ~vdd ~rst_n_bF_buf1 mem_58__3_ NULL ddflop
ADFFSR_165 _55__0_ clk_bF_buf28 ~vdd ~rst_n_bF_buf36 mem_59__0_ NULL ddflop
ADFFSR_166 _55__1_ clk_bF_buf2 ~vdd ~rst_n_bF_buf11 mem_59__1_ NULL ddflop
ADFFSR_167 _55__2_ clk_bF_buf15 ~vdd ~rst_n_bF_buf36 mem_59__2_ NULL ddflop
ADFFSR_168 _34__2_ clk_bF_buf3 ~vdd ~rst_n_bF_buf23 mem_3__2_ NULL ddflop
ADFFSR_169 _55__3_ clk_bF_buf15 ~vdd ~rst_n_bF_buf11 mem_59__3_ NULL ddflop
ADFFSR_170 _57__0_ clk_bF_buf15 ~vdd ~rst_n_bF_buf36 mem_60__0_ NULL ddflop
ADFFSR_171 _57__1_ clk_bF_buf38 ~vdd ~rst_n_bF_buf30 mem_60__1_ NULL ddflop
ADFFSR_172 _57__2_ clk_bF_buf37 ~vdd ~rst_n_bF_buf16 mem_60__2_ NULL ddflop
ADFFSR_173 _57__3_ clk_bF_buf38 ~vdd ~rst_n_bF_buf25 mem_60__3_ NULL ddflop
ADFFSR_174 _58__0_ clk_bF_buf26 ~vdd ~rst_n_bF_buf35 mem_61__0_ NULL ddflop
ADFFSR_175 _58__1_ clk_bF_buf7 ~vdd ~rst_n_bF_buf1 mem_61__1_ NULL ddflop
ADFFSR_176 _58__2_ clk_bF_buf24 ~vdd ~rst_n_bF_buf6 mem_61__2_ NULL ddflop
ADFFSR_177 _58__3_ clk_bF_buf23 ~vdd ~rst_n_bF_buf1 mem_61__3_ NULL ddflop
ADFFSR_178 _59__0_ clk_bF_buf9 ~vdd ~rst_n_bF_buf14 mem_62__0_ NULL ddflop
ADFFSR_179 _34__3_ clk_bF_buf27 ~vdd ~rst_n_bF_buf39 mem_3__3_ NULL ddflop
ADFFSR_180 _59__1_ clk_bF_buf38 ~vdd ~rst_n_bF_buf25 mem_62__1_ NULL ddflop
ADFFSR_181 _59__2_ clk_bF_buf37 ~vdd ~rst_n_bF_buf20 mem_62__2_ NULL ddflop
ADFFSR_182 _59__3_ clk_bF_buf33 ~vdd ~rst_n_bF_buf40 mem_62__3_ NULL ddflop
ADFFSR_183 _60__0_ clk_bF_buf6 ~vdd ~rst_n_bF_buf34 mem_63__0_ NULL ddflop
ADFFSR_184 _60__1_ clk_bF_buf6 ~vdd ~rst_n_bF_buf6 mem_63__1_ NULL ddflop
ADFFSR_185 _60__2_ clk_bF_buf24 ~vdd ~rst_n_bF_buf34 mem_63__2_ NULL ddflop
ADFFSR_186 _60__3_ clk_bF_buf23 ~vdd ~rst_n_bF_buf1 mem_63__3_ NULL ddflop
ADFFSR_187 store_ff2 clk_bF_buf12 ~vdd ~rst_n_bF_buf17 store_d NULL ddflop
ADFFSR_188 next_ff2 clk_bF_buf25 ~vdd ~rst_n_bF_buf31 next_d NULL ddflop
ADFFSR_189 prev_ff2 clk_bF_buf12 ~vdd ~rst_n_bF_buf22 prev_d NULL ddflop
ADFFSR_190 _45__0_ clk_bF_buf14 ~vdd ~rst_n_bF_buf32 mem_4__0_ NULL ddflop
ADFFSR_191 store clk_bF_buf27 ~vdd ~rst_n_bF_buf32 store_ff1 NULL ddflop
ADFFSR_192 store_ff1 clk_bF_buf14 ~vdd ~rst_n_bF_buf22 store_ff2 NULL ddflop
ADFFSR_193 next clk_bF_buf12 ~vdd ~rst_n_bF_buf17 next_ff1 NULL ddflop
ADFFSR_194 next_ff1 clk_bF_buf19 ~vdd ~rst_n_bF_buf17 next_ff2 NULL ddflop
ADFFSR_195 prev clk_bF_buf27 ~vdd ~rst_n_bF_buf39 prev_ff1 NULL ddflop
ADFFSR_196 prev_ff1 clk_bF_buf27 ~vdd ~rst_n_bF_buf32 prev_ff2 NULL ddflop
ADFFSR_197 _45__1_ clk_bF_buf27 ~vdd ~rst_n_bF_buf39 mem_4__1_ NULL ddflop
ADFFSR_198 _45__2_ clk_bF_buf14 ~vdd ~rst_n_bF_buf22 mem_4__2_ NULL ddflop
ADFFSR_199 addr_after_2_ clk_bF_buf19 ~vdd ~rst_n_bF_buf17 _919__2_ NULL ddflop
ADFFSR_200 _45__3_ clk_bF_buf36 ~vdd ~rst_n_bF_buf32 mem_4__3_ NULL ddflop
ADFFSR_201 _56__0_ clk_bF_buf34 ~vdd ~rst_n_bF_buf39 mem_5__0_ NULL ddflop
ADFFSR_202 _56__1_ clk_bF_buf34 ~vdd ~rst_n_bF_buf24 mem_5__1_ NULL ddflop
ADFFSR_203 _56__2_ clk_bF_buf0 ~vdd ~rst_n_bF_buf9 mem_5__2_ NULL ddflop
ADFFSR_204 _56__3_ clk_bF_buf27 ~vdd ~rst_n_bF_buf32 mem_5__3_ NULL ddflop
ADFFSR_205 _61__0_ clk_bF_buf36 ~vdd ~rst_n_bF_buf32 mem_6__0_ NULL ddflop
ADFFSR_206 _61__1_ clk_bF_buf34 ~vdd ~rst_n_bF_buf39 mem_6__1_ NULL ddflop
ADFFSR_207 _61__2_ clk_bF_buf30 ~vdd ~rst_n_bF_buf41 mem_6__2_ NULL ddflop