* NGSPICE file created from nibble_mem.ext - technology: scmos

* Black-box entry subcircuit for FILL abstract view
.subckt FILL gnd vdd
.ends

* Black-box entry subcircuit for AND2X2 abstract view
.subckt AND2X2 A B gnd Y vdd
.ends

* Black-box entry subcircuit for MUX2X1 abstract view
.subckt MUX2X1 A B S gnd Y vdd
.ends

* Black-box entry subcircuit for DFFSR abstract view
.subckt DFFSR Q CLK R S D gnd vdd
.ends

* Black-box entry subcircuit for INVX1 abstract view
.subckt INVX1 A gnd Y vdd
.ends

* Black-box entry subcircuit for NAND2X1 abstract view
.subckt NAND2X1 A B gnd Y vdd
.ends

* Black-box entry subcircuit for OAI22X1 abstract view
.subckt OAI22X1 A B C D gnd Y vdd
.ends

* Black-box entry subcircuit for OAI21X1 abstract view
.subckt OAI21X1 A B C gnd Y vdd
.ends

* Black-box entry subcircuit for BUFX4 abstract view
.subckt BUFX4 A gnd Y vdd
.ends

* Black-box entry subcircuit for AOI22X1 abstract view
.subckt AOI22X1 A B C D gnd Y vdd
.ends

* Black-box entry subcircuit for INVX8 abstract view
.subckt INVX8 A gnd Y vdd
.ends

* Black-box entry subcircuit for NOR3X1 abstract view
.subckt NOR3X1 A B C gnd Y vdd
.ends

* Black-box entry subcircuit for CLKBUF1 abstract view
.subckt CLKBUF1 A gnd Y vdd
.ends

* Black-box entry subcircuit for NOR2X1 abstract view
.subckt NOR2X1 A B gnd Y vdd
.ends

* Black-box entry subcircuit for NAND3X1 abstract view
.subckt NAND3X1 A B C gnd Y vdd
.ends

* Black-box entry subcircuit for AOI21X1 abstract view
.subckt AOI21X1 A B C gnd Y vdd
.ends

* Black-box entry subcircuit for INVX4 abstract view
.subckt INVX4 A gnd Y vdd
.ends

* Black-box entry subcircuit for BUFX2 abstract view
.subckt BUFX2 A gnd Y vdd
.ends

* Black-box entry subcircuit for INVX2 abstract view
.subckt INVX2 A gnd Y vdd
.ends

* Black-box entry subcircuit for OR2X2 abstract view
.subckt OR2X2 A B gnd Y vdd
.ends

.subckt nibble_mem vdd gnd clk rst_n din[0] din[1] din[2] din[3] store next prev dout[0]
+ dout[1] dout[2] dout[3] addr[0] addr[1] addr[2] addr[3] addr[4] addr[5]
XFILL_65_DFFSR_227 gnd vdd FILL
XFILL_87_DFFSR_69 gnd vdd FILL
XFILL_16_DFFSR_25 gnd vdd FILL
XFILL_9_6_0 gnd vdd FILL
XFILL_16_DFFSR_36 gnd vdd FILL
XFILL_65_DFFSR_238 gnd vdd FILL
XFILL_65_DFFSR_249 gnd vdd FILL
XFILL_19_NOR3X1_15 gnd vdd FILL
XFILL_16_DFFSR_47 gnd vdd FILL
XFILL_16_DFFSR_58 gnd vdd FILL
XFILL_19_NOR3X1_26 gnd vdd FILL
XFILL_16_DFFSR_69 gnd vdd FILL
XFILL_19_NOR3X1_37 gnd vdd FILL
XFILL_19_NOR3X1_48 gnd vdd FILL
XFILL_69_DFFSR_204 gnd vdd FILL
XFILL_56_DFFSR_13 gnd vdd FILL
XFILL_69_DFFSR_215 gnd vdd FILL
XFILL_13_CLKBUF1_40 gnd vdd FILL
XFILL_56_DFFSR_24 gnd vdd FILL
XFILL_69_DFFSR_226 gnd vdd FILL
XFILL_56_DFFSR_35 gnd vdd FILL
XFILL_48_1_2 gnd vdd FILL
XFILL_69_DFFSR_237 gnd vdd FILL
XFILL_56_DFFSR_46 gnd vdd FILL
XFILL_69_DFFSR_248 gnd vdd FILL
XFILL_69_DFFSR_259 gnd vdd FILL
XFILL_56_DFFSR_57 gnd vdd FILL
XFILL_56_DFFSR_68 gnd vdd FILL
XFILL_56_DFFSR_79 gnd vdd FILL
XFILL_17_5_0 gnd vdd FILL
XFILL_54_DFFSR_6 gnd vdd FILL
XFILL_25_DFFSR_12 gnd vdd FILL
XFILL_25_DFFSR_23 gnd vdd FILL
XFILL_25_DFFSR_34 gnd vdd FILL
XFILL_25_DFFSR_45 gnd vdd FILL
XFILL_25_DFFSR_56 gnd vdd FILL
XFILL_11_NOR2X1_180 gnd vdd FILL
XFILL_25_DFFSR_67 gnd vdd FILL
XFILL_11_NOR2X1_191 gnd vdd FILL
XFILL_25_DFFSR_78 gnd vdd FILL
XFILL_31_0_2 gnd vdd FILL
XFILL_25_DFFSR_89 gnd vdd FILL
XFILL_65_DFFSR_11 gnd vdd FILL
XFILL_65_DFFSR_22 gnd vdd FILL
XFILL_50_DFFSR_260 gnd vdd FILL
XFILL_50_DFFSR_271 gnd vdd FILL
XFILL_65_DFFSR_33 gnd vdd FILL
XFILL_65_DFFSR_44 gnd vdd FILL
XFILL_0_MUX2X1_9 gnd vdd FILL
XFILL_65_DFFSR_55 gnd vdd FILL
XFILL_65_DFFSR_66 gnd vdd FILL
XFILL_65_DFFSR_77 gnd vdd FILL
XFILL_65_DFFSR_88 gnd vdd FILL
XFILL_65_DFFSR_99 gnd vdd FILL
XFILL_15_NAND3X1_107 gnd vdd FILL
XFILL_15_NAND3X1_118 gnd vdd FILL
XFILL_8_DFFSR_13 gnd vdd FILL
XFILL_54_DFFSR_270 gnd vdd FILL
XFILL_15_NAND3X1_129 gnd vdd FILL
XFILL_8_DFFSR_24 gnd vdd FILL
XFILL_19_DFFSR_9 gnd vdd FILL
XFILL_8_DFFSR_35 gnd vdd FILL
XFILL_34_DFFSR_10 gnd vdd FILL
XFILL_34_DFFSR_21 gnd vdd FILL
XFILL_8_DFFSR_46 gnd vdd FILL
XFILL_11_MUX2X1_120 gnd vdd FILL
XFILL_8_DFFSR_57 gnd vdd FILL
XFILL_34_DFFSR_32 gnd vdd FILL
XFILL_11_MUX2X1_131 gnd vdd FILL
XFILL_34_DFFSR_43 gnd vdd FILL
XFILL_8_DFFSR_68 gnd vdd FILL
XFILL_8_DFFSR_79 gnd vdd FILL
XFILL_11_MUX2X1_142 gnd vdd FILL
XFILL_34_DFFSR_54 gnd vdd FILL
XFILL_11_MUX2X1_153 gnd vdd FILL
XFILL_34_DFFSR_65 gnd vdd FILL
XFILL_34_DFFSR_76 gnd vdd FILL
XFILL_81_DFFSR_170 gnd vdd FILL
XFILL_11_MUX2X1_164 gnd vdd FILL
XFILL_11_MUX2X1_175 gnd vdd FILL
XFILL_81_DFFSR_181 gnd vdd FILL
XFILL_11_MUX2X1_186 gnd vdd FILL
XFILL_34_DFFSR_87 gnd vdd FILL
XFILL_34_DFFSR_98 gnd vdd FILL
XFILL_81_DFFSR_192 gnd vdd FILL
XFILL_32_DFFSR_205 gnd vdd FILL
XFILL_74_DFFSR_20 gnd vdd FILL
XFILL_32_DFFSR_216 gnd vdd FILL
XFILL_74_DFFSR_31 gnd vdd FILL
XFILL_32_DFFSR_227 gnd vdd FILL
XFILL_1_DFFSR_240 gnd vdd FILL
XFILL_1_DFFSR_251 gnd vdd FILL
XFILL_32_DFFSR_238 gnd vdd FILL
XFILL_74_DFFSR_42 gnd vdd FILL
XFILL_32_DFFSR_249 gnd vdd FILL
XFILL_74_DFFSR_53 gnd vdd FILL
XFILL_1_DFFSR_262 gnd vdd FILL
XFILL_74_DFFSR_64 gnd vdd FILL
XFILL_1_DFFSR_273 gnd vdd FILL
XFILL_74_DFFSR_75 gnd vdd FILL
XFILL_85_DFFSR_180 gnd vdd FILL
XFILL_74_DFFSR_86 gnd vdd FILL
XFILL_39_1_2 gnd vdd FILL
XFILL_85_DFFSR_191 gnd vdd FILL
XFILL_36_DFFSR_204 gnd vdd FILL
XFILL_74_DFFSR_97 gnd vdd FILL
XFILL_36_DFFSR_215 gnd vdd FILL
XFILL_36_DFFSR_226 gnd vdd FILL
XFILL_36_DFFSR_237 gnd vdd FILL
XFILL_5_DFFSR_250 gnd vdd FILL
XFILL_36_DFFSR_248 gnd vdd FILL
XFILL_5_DFFSR_261 gnd vdd FILL
XFILL_5_DFFSR_272 gnd vdd FILL
XFILL_43_DFFSR_30 gnd vdd FILL
XFILL_36_DFFSR_259 gnd vdd FILL
XFILL_43_DFFSR_41 gnd vdd FILL
XFILL_2_MUX2X1_17 gnd vdd FILL
XFILL_14_NOR3X1_5 gnd vdd FILL
XFILL_2_MUX2X1_28 gnd vdd FILL
XFILL_63_DFFSR_104 gnd vdd FILL
XFILL_43_DFFSR_52 gnd vdd FILL
XFILL_43_DFFSR_63 gnd vdd FILL
XFILL_2_MUX2X1_39 gnd vdd FILL
XFILL_63_DFFSR_115 gnd vdd FILL
XFILL_43_DFFSR_74 gnd vdd FILL
XFILL_63_DFFSR_126 gnd vdd FILL
XFILL_43_DFFSR_85 gnd vdd FILL
XFILL_63_DFFSR_137 gnd vdd FILL
XFILL_43_DFFSR_96 gnd vdd FILL
XFILL_63_DFFSR_148 gnd vdd FILL
XFILL_10_NAND3X1_103 gnd vdd FILL
XFILL_9_DFFSR_260 gnd vdd FILL
XFILL_10_NAND3X1_114 gnd vdd FILL
XFILL_63_DFFSR_159 gnd vdd FILL
XFILL_9_DFFSR_271 gnd vdd FILL
XFILL_10_NAND3X1_125 gnd vdd FILL
XFILL_83_DFFSR_40 gnd vdd FILL
XFILL_50_3_0 gnd vdd FILL
XFILL_6_MUX2X1_16 gnd vdd FILL
XFILL_83_DFFSR_51 gnd vdd FILL
XFILL_6_MUX2X1_27 gnd vdd FILL
XFILL_67_DFFSR_103 gnd vdd FILL
XFILL_22_0_2 gnd vdd FILL
XFILL_6_MUX2X1_38 gnd vdd FILL
XFILL_67_DFFSR_114 gnd vdd FILL
XFILL_83_DFFSR_62 gnd vdd FILL
XFILL_83_DFFSR_73 gnd vdd FILL
XFILL_6_MUX2X1_49 gnd vdd FILL
XFILL_67_DFFSR_125 gnd vdd FILL
XFILL_67_DFFSR_136 gnd vdd FILL
XFILL_83_DFFSR_84 gnd vdd FILL
XFILL_12_DFFSR_40 gnd vdd FILL
XFILL_83_DFFSR_95 gnd vdd FILL
XFILL_12_DFFSR_51 gnd vdd FILL
XFILL_10_OAI21X1_4 gnd vdd FILL
XFILL_14_NAND3X1_12 gnd vdd FILL
XFILL_67_DFFSR_147 gnd vdd FILL
XFILL_67_DFFSR_158 gnd vdd FILL
XFILL_1_MUX2X1_170 gnd vdd FILL
XFILL_14_NAND3X1_23 gnd vdd FILL
XFILL_12_DFFSR_62 gnd vdd FILL
XFILL_12_DFFSR_73 gnd vdd FILL
XFILL_67_DFFSR_169 gnd vdd FILL
XFILL_14_NAND3X1_34 gnd vdd FILL
XFILL_1_MUX2X1_181 gnd vdd FILL
XFILL_12_DFFSR_84 gnd vdd FILL
XFILL_13_BUFX4_9 gnd vdd FILL
XFILL_14_NAND3X1_45 gnd vdd FILL
XFILL_1_MUX2X1_192 gnd vdd FILL
XFILL_12_DFFSR_95 gnd vdd FILL
XFILL_14_NAND3X1_56 gnd vdd FILL
XFILL_34_CLKBUF1_12 gnd vdd FILL
XFILL_14_NAND3X1_67 gnd vdd FILL
XFILL_34_CLKBUF1_23 gnd vdd FILL
XFILL_14_NAND3X1_78 gnd vdd FILL
XFILL_34_CLKBUF1_34 gnd vdd FILL
XFILL_23_NOR3X1_3 gnd vdd FILL
XFILL_14_NAND3X1_89 gnd vdd FILL
XFILL_52_DFFSR_50 gnd vdd FILL
XFILL_14_OAI21X1_3 gnd vdd FILL
XFILL_1_NAND3X1_108 gnd vdd FILL
XFILL_52_DFFSR_61 gnd vdd FILL
XFILL_1_NAND3X1_119 gnd vdd FILL
XFILL_11_NOR2X1_50 gnd vdd FILL
XFILL_52_DFFSR_72 gnd vdd FILL
XFILL_52_DFFSR_83 gnd vdd FILL
XFILL_11_NOR2X1_61 gnd vdd FILL
XFILL_21_DFFSR_270 gnd vdd FILL
XFILL_52_DFFSR_94 gnd vdd FILL
XFILL_11_NOR2X1_72 gnd vdd FILL
XFILL_11_NOR2X1_83 gnd vdd FILL
XFILL_2_INVX1_210 gnd vdd FILL
XFILL_11_NOR2X1_94 gnd vdd FILL
XFILL_1_DFFSR_1 gnd vdd FILL
XFILL_2_INVX1_221 gnd vdd FILL
XFILL_21_DFFSR_60 gnd vdd FILL
XFILL_22_MUX2X1_14 gnd vdd FILL
XFILL_22_MUX2X1_25 gnd vdd FILL
XFILL_21_DFFSR_71 gnd vdd FILL
XFILL_6_INVX1_220 gnd vdd FILL
XFILL_22_MUX2X1_36 gnd vdd FILL
XFILL_21_DFFSR_82 gnd vdd FILL
XFILL_58_4_0 gnd vdd FILL
XFILL_21_DFFSR_93 gnd vdd FILL
XFILL_22_MUX2X1_47 gnd vdd FILL
XFILL_22_MUX2X1_58 gnd vdd FILL
XFILL_6_NOR3X1_4 gnd vdd FILL
XFILL_22_MUX2X1_69 gnd vdd FILL
XFILL_5_OAI22X1_19 gnd vdd FILL
XFILL_5_1_2 gnd vdd FILL
XFILL_52_DFFSR_180 gnd vdd FILL
XFILL_52_DFFSR_191 gnd vdd FILL
XFILL_61_DFFSR_70 gnd vdd FILL
XFILL_61_DFFSR_81 gnd vdd FILL
XFILL_61_DFFSR_92 gnd vdd FILL
XFILL_4_NAND3X1_40 gnd vdd FILL
XFILL_4_NAND3X1_51 gnd vdd FILL
XFILL_4_NAND3X1_62 gnd vdd FILL
XFILL_4_NAND3X1_73 gnd vdd FILL
XFILL_8_NAND2X1_20 gnd vdd FILL
XFILL_36_DFFSR_3 gnd vdd FILL
XFILL_4_NAND3X1_84 gnd vdd FILL
XFILL_56_DFFSR_190 gnd vdd FILL
XFILL_8_NAND2X1_31 gnd vdd FILL
XFILL_30_DFFSR_104 gnd vdd FILL
XFILL_8_NAND2X1_42 gnd vdd FILL
XFILL_4_DFFSR_50 gnd vdd FILL
XFILL_4_NAND3X1_95 gnd vdd FILL
XFILL_8_NAND2X1_53 gnd vdd FILL
XFILL_30_DFFSR_115 gnd vdd FILL
XFILL_4_DFFSR_61 gnd vdd FILL
XFILL_30_DFFSR_126 gnd vdd FILL
XFILL_8_NAND2X1_64 gnd vdd FILL
XFILL_4_DFFSR_72 gnd vdd FILL
XFILL_4_DFFSR_83 gnd vdd FILL
XFILL_30_DFFSR_137 gnd vdd FILL
XFILL_41_3_0 gnd vdd FILL
XFILL_8_NAND2X1_75 gnd vdd FILL
XFILL_30_DFFSR_148 gnd vdd FILL
XFILL_4_DFFSR_94 gnd vdd FILL
XFILL_13_0_2 gnd vdd FILL
XFILL_8_NAND2X1_86 gnd vdd FILL
XFILL_30_DFFSR_80 gnd vdd FILL
XFILL_30_DFFSR_159 gnd vdd FILL
XFILL_30_DFFSR_91 gnd vdd FILL
XFILL_34_DFFSR_103 gnd vdd FILL
XFILL_34_DFFSR_114 gnd vdd FILL
XFILL_11_NAND2X1_5 gnd vdd FILL
XFILL_16_CLKBUF1_17 gnd vdd FILL
XFILL_16_CLKBUF1_28 gnd vdd FILL
XFILL_34_DFFSR_125 gnd vdd FILL
XFILL_34_DFFSR_136 gnd vdd FILL
XFILL_16_CLKBUF1_39 gnd vdd FILL
XFILL_3_DFFSR_160 gnd vdd FILL
XFILL_11_AOI21X1_14 gnd vdd FILL
XFILL_34_DFFSR_147 gnd vdd FILL
XFILL_34_DFFSR_158 gnd vdd FILL
XFILL_11_AOI21X1_25 gnd vdd FILL
XFILL_3_DFFSR_171 gnd vdd FILL
XFILL_70_DFFSR_90 gnd vdd FILL
XFILL_11_AOI21X1_36 gnd vdd FILL
XFILL_34_DFFSR_169 gnd vdd FILL
XFILL_3_DFFSR_182 gnd vdd FILL
XFILL_3_DFFSR_193 gnd vdd FILL
XAND2X2_5 AND2X2_6/A AND2X2_5/B gnd AND2X2_5/Y vdd AND2X2
XFILL_11_AOI21X1_47 gnd vdd FILL
XFILL_38_DFFSR_102 gnd vdd FILL
XFILL_11_AOI21X1_58 gnd vdd FILL
XFILL_20_DFFSR_9 gnd vdd FILL
XFILL_11_AOI21X1_69 gnd vdd FILL
XFILL_38_DFFSR_113 gnd vdd FILL
XFILL_38_DFFSR_124 gnd vdd FILL
XFILL_38_DFFSR_135 gnd vdd FILL
XFILL_38_DFFSR_146 gnd vdd FILL
XFILL_38_DFFSR_157 gnd vdd FILL
XFILL_7_DFFSR_170 gnd vdd FILL
XFILL_58_DFFSR_7 gnd vdd FILL
XFILL_38_DFFSR_168 gnd vdd FILL
XFILL_7_DFFSR_181 gnd vdd FILL
XFILL_38_DFFSR_179 gnd vdd FILL
XFILL_11_MUX2X1_90 gnd vdd FILL
XFILL_7_DFFSR_192 gnd vdd FILL
XFILL_30_NOR3X1_15 gnd vdd FILL
XFILL_30_NOR3X1_26 gnd vdd FILL
XFILL_30_NOR3X1_37 gnd vdd FILL
XFILL_30_NOR3X1_48 gnd vdd FILL
XFILL_80_DFFSR_204 gnd vdd FILL
XFILL_80_DFFSR_215 gnd vdd FILL
XFILL_80_DFFSR_226 gnd vdd FILL
XFILL_2_5 gnd vdd FILL
XFILL_80_DFFSR_237 gnd vdd FILL
XFILL_80_DFFSR_248 gnd vdd FILL
XFILL_80_DFFSR_259 gnd vdd FILL
XFILL_49_4_0 gnd vdd FILL
XFILL_84_DFFSR_203 gnd vdd FILL
XFILL_23_CLKBUF1_30 gnd vdd FILL
XFILL_23_CLKBUF1_41 gnd vdd FILL
XFILL_84_DFFSR_214 gnd vdd FILL
XFILL_84_DFFSR_225 gnd vdd FILL
XFILL_84_DFFSR_236 gnd vdd FILL
XFILL_84_DFFSR_247 gnd vdd FILL
XFILL_6_CLKBUF1_12 gnd vdd FILL
XFILL_84_DFFSR_258 gnd vdd FILL
XFILL_84_DFFSR_269 gnd vdd FILL
XFILL_6_CLKBUF1_23 gnd vdd FILL
XFILL_44_5 gnd vdd FILL
XFILL_6_CLKBUF1_34 gnd vdd FILL
XFILL_0_INVX1_120 gnd vdd FILL
XFILL_0_INVX1_131 gnd vdd FILL
XFILL_14_MUX2X1_108 gnd vdd FILL
XFILL_14_MUX2X1_119 gnd vdd FILL
XFILL_1_AOI21X1_20 gnd vdd FILL
XFILL_0_INVX1_142 gnd vdd FILL
XFILL_0_INVX1_153 gnd vdd FILL
XFILL_1_AOI21X1_31 gnd vdd FILL
XFILL_0_INVX1_164 gnd vdd FILL
XFILL_15_AOI21X1_9 gnd vdd FILL
XFILL_1_AOI21X1_42 gnd vdd FILL
XFILL_0_INVX1_175 gnd vdd FILL
XFILL_1_AOI21X1_53 gnd vdd FILL
XFILL_0_INVX1_186 gnd vdd FILL
XFILL_11_OAI22X1_11 gnd vdd FILL
XFILL_11_OAI22X1_22 gnd vdd FILL
XFILL_1_AOI21X1_64 gnd vdd FILL
XFILL_0_INVX1_197 gnd vdd FILL
XFILL_23_DFFSR_190 gnd vdd FILL
XFILL_1_AOI21X1_75 gnd vdd FILL
XFILL_11_OAI22X1_33 gnd vdd FILL
XFILL_32_3_0 gnd vdd FILL
XFILL_11_OAI22X1_44 gnd vdd FILL
XFILL_4_INVX1_130 gnd vdd FILL
XFILL_15_OAI21X1_13 gnd vdd FILL
XFILL_4_INVX1_141 gnd vdd FILL
XFILL_4_INVX1_152 gnd vdd FILL
XFILL_15_OAI21X1_24 gnd vdd FILL
XFILL_4_NOR2X1_130 gnd vdd FILL
XFILL_4_NOR2X1_141 gnd vdd FILL
XFILL_15_OAI21X1_35 gnd vdd FILL
XFILL_4_INVX1_163 gnd vdd FILL
XFILL_15_OAI21X1_46 gnd vdd FILL
XFILL_4_INVX1_174 gnd vdd FILL
XFILL_4_INVX1_185 gnd vdd FILL
XFILL_4_NOR2X1_152 gnd vdd FILL
XFILL_4_NOR2X1_163 gnd vdd FILL
XFILL_4_NOR2X1_174 gnd vdd FILL
XFILL_4_INVX1_196 gnd vdd FILL
XFILL_4_NOR2X1_185 gnd vdd FILL
XFILL_4_NOR2X1_196 gnd vdd FILL
XFILL_21_MUX2X1_110 gnd vdd FILL
XFILL_21_MUX2X1_121 gnd vdd FILL
XFILL_2_OAI22X1_3 gnd vdd FILL
XFILL_21_MUX2X1_132 gnd vdd FILL
XFILL_21_MUX2X1_143 gnd vdd FILL
XFILL_21_MUX2X1_154 gnd vdd FILL
XFILL_21_MUX2X1_165 gnd vdd FILL
XFILL_60_13 gnd vdd FILL
XFILL_4_MUX2X1_103 gnd vdd FILL
XFILL_21_MUX2X1_176 gnd vdd FILL
XFILL_4_MUX2X1_114 gnd vdd FILL
XFILL_21_MUX2X1_187 gnd vdd FILL
XFILL_4_MUX2X1_125 gnd vdd FILL
XFILL_4_MUX2X1_136 gnd vdd FILL
XFILL_6_OAI22X1_2 gnd vdd FILL
XFILL_4_MUX2X1_147 gnd vdd FILL
XFILL_4_MUX2X1_158 gnd vdd FILL
XFILL_4_MUX2X1_169 gnd vdd FILL
XFILL_1_OAI22X1_50 gnd vdd FILL
XFILL_5_OAI21X1_30 gnd vdd FILL
XFILL_51_DFFSR_203 gnd vdd FILL
XFILL_5_OAI21X1_41 gnd vdd FILL
XFILL_51_DFFSR_214 gnd vdd FILL
XFILL_51_DFFSR_225 gnd vdd FILL
XFILL_51_DFFSR_236 gnd vdd FILL
XFILL_51_DFFSR_247 gnd vdd FILL
XFILL_51_DFFSR_258 gnd vdd FILL
XFILL_51_DFFSR_269 gnd vdd FILL
XFILL_5_DFFSR_2 gnd vdd FILL
XFILL_55_DFFSR_202 gnd vdd FILL
XFILL_55_DFFSR_213 gnd vdd FILL
XFILL_55_DFFSR_224 gnd vdd FILL
XFILL_23_3_0 gnd vdd FILL
XFILL_55_DFFSR_235 gnd vdd FILL
XFILL_75_DFFSR_1 gnd vdd FILL
XFILL_11_NAND3X1_104 gnd vdd FILL
XFILL_9_BUFX4_10 gnd vdd FILL
XFILL_55_DFFSR_246 gnd vdd FILL
XFILL_11_NAND3X1_115 gnd vdd FILL
XFILL_9_BUFX4_21 gnd vdd FILL
XFILL_55_DFFSR_257 gnd vdd FILL
XFILL_9_BUFX4_32 gnd vdd FILL
XFILL_11_NAND3X1_126 gnd vdd FILL
XFILL_55_DFFSR_268 gnd vdd FILL
XFILL_9_BUFX4_43 gnd vdd FILL
XFILL_10_CLKBUF1_9 gnd vdd FILL
XFILL_59_DFFSR_201 gnd vdd FILL
XFILL_82_DFFSR_102 gnd vdd FILL
XFILL_9_BUFX4_54 gnd vdd FILL
XFILL_44_DFFSR_19 gnd vdd FILL
XFILL_9_BUFX4_65 gnd vdd FILL
XFILL_59_DFFSR_212 gnd vdd FILL
XFILL_82_DFFSR_113 gnd vdd FILL
XFILL_82_DFFSR_124 gnd vdd FILL
XFILL_0_BUFX2_8 gnd vdd FILL
XFILL_9_BUFX4_76 gnd vdd FILL
XFILL_82_DFFSR_135 gnd vdd FILL
XFILL_59_DFFSR_223 gnd vdd FILL
XFILL_9_BUFX4_87 gnd vdd FILL
XFILL_59_DFFSR_234 gnd vdd FILL
XFILL_9_BUFX4_98 gnd vdd FILL
XFILL_82_DFFSR_146 gnd vdd FILL
XFILL_59_DFFSR_245 gnd vdd FILL
XFILL_82_DFFSR_157 gnd vdd FILL
XFILL_59_DFFSR_256 gnd vdd FILL
XFILL_59_DFFSR_267 gnd vdd FILL
XFILL_82_DFFSR_168 gnd vdd FILL
XFILL_82_DFFSR_179 gnd vdd FILL
XFILL_14_CLKBUF1_8 gnd vdd FILL
XFILL_2_DFFSR_205 gnd vdd FILL
XFILL_86_DFFSR_101 gnd vdd FILL
XFILL_2_DFFSR_216 gnd vdd FILL
XFILL_84_DFFSR_18 gnd vdd FILL
XFILL_86_DFFSR_112 gnd vdd FILL
XFILL_7_NAND3X1_17 gnd vdd FILL
XFILL_2_DFFSR_227 gnd vdd FILL
XFILL_84_DFFSR_29 gnd vdd FILL
XFILL_86_DFFSR_123 gnd vdd FILL
XFILL_86_DFFSR_134 gnd vdd FILL
XFILL_2_DFFSR_238 gnd vdd FILL
XFILL_7_NAND3X1_28 gnd vdd FILL
XFILL_86_DFFSR_145 gnd vdd FILL
XFILL_2_DFFSR_249 gnd vdd FILL
XFILL_7_NAND3X1_39 gnd vdd FILL
XFILL_2_NAND3X1_109 gnd vdd FILL
XFILL_86_DFFSR_156 gnd vdd FILL
XFILL_13_DFFSR_18 gnd vdd FILL
XFILL_10_BUFX4_103 gnd vdd FILL
XFILL_86_DFFSR_167 gnd vdd FILL
XFILL_13_DFFSR_29 gnd vdd FILL
XFILL_18_CLKBUF1_7 gnd vdd FILL
XFILL_86_DFFSR_178 gnd vdd FILL
XFILL_86_DFFSR_189 gnd vdd FILL
XFILL_6_DFFSR_204 gnd vdd FILL
XFILL_3_NAND3X1_4 gnd vdd FILL
XFILL_6_DFFSR_215 gnd vdd FILL
XFILL_6_DFFSR_226 gnd vdd FILL
XFILL_6_DFFSR_237 gnd vdd FILL
XFILL_6_DFFSR_248 gnd vdd FILL
XFILL_6_DFFSR_259 gnd vdd FILL
XFILL_14_BUFX4_102 gnd vdd FILL
XFILL_53_DFFSR_17 gnd vdd FILL
XFILL_53_DFFSR_28 gnd vdd FILL
XFILL_53_DFFSR_39 gnd vdd FILL
XFILL_7_NAND3X1_3 gnd vdd FILL
XFILL_6_4_0 gnd vdd FILL
XMUX2X1_17 BUFX4_85/Y INVX1_30/Y MUX2X1_20/S gnd DFFSR_10/D vdd MUX2X1
XFILL_0_NAND2X1_19 gnd vdd FILL
XMUX2X1_28 BUFX4_63/Y INVX1_41/Y NOR2X1_16/B gnd MUX2X1_28/Y vdd MUX2X1
XMUX2X1_39 INVX1_52/Y BUFX4_77/Y NAND2X1_5/Y gnd MUX2X1_39/Y vdd MUX2X1
XFILL_22_DFFSR_16 gnd vdd FILL
XFILL_22_DFFSR_27 gnd vdd FILL
XFILL_22_DFFSR_38 gnd vdd FILL
XFILL_13_BUFX4_70 gnd vdd FILL
XFILL_22_DFFSR_49 gnd vdd FILL
XFILL_13_BUFX4_81 gnd vdd FILL
XFILL_13_BUFX4_92 gnd vdd FILL
XFILL_10_MUX2X1_150 gnd vdd FILL
XFILL_10_MUX2X1_161 gnd vdd FILL
XFILL_10_MUX2X1_172 gnd vdd FILL
XFILL_14_3_0 gnd vdd FILL
XFILL_62_DFFSR_15 gnd vdd FILL
XFILL_10_MUX2X1_183 gnd vdd FILL
XFILL_22_DFFSR_202 gnd vdd FILL
XFILL_10_MUX2X1_194 gnd vdd FILL
XFILL_62_DFFSR_26 gnd vdd FILL
XFILL_22_DFFSR_213 gnd vdd FILL
XFILL_62_DFFSR_37 gnd vdd FILL
XFILL_62_DFFSR_48 gnd vdd FILL
XFILL_22_DFFSR_224 gnd vdd FILL
XFILL_22_DFFSR_235 gnd vdd FILL
XFILL_16_9 gnd vdd FILL
XFILL_3_AOI22X1_9 gnd vdd FILL
XFILL_62_DFFSR_59 gnd vdd FILL
XFILL_22_DFFSR_246 gnd vdd FILL
XFILL_22_DFFSR_257 gnd vdd FILL
XFILL_22_DFFSR_268 gnd vdd FILL
XFILL_26_DFFSR_201 gnd vdd FILL
XFILL_3_INVX1_208 gnd vdd FILL
XFILL_26_CLKBUF1_18 gnd vdd FILL
XFILL_26_DFFSR_212 gnd vdd FILL
XFILL_3_INVX1_219 gnd vdd FILL
XDFFSR_9 DFFSR_9/Q DFFSR_9/CLK DFFSR_9/R vdd DFFSR_9/D gnd vdd DFFSR
XFILL_26_CLKBUF1_29 gnd vdd FILL
XFILL_5_DFFSR_17 gnd vdd FILL
XFILL_26_DFFSR_223 gnd vdd FILL
XFILL_5_DFFSR_28 gnd vdd FILL
XFILL_7_AOI22X1_8 gnd vdd FILL
XFILL_26_DFFSR_234 gnd vdd FILL
XFILL_31_DFFSR_14 gnd vdd FILL
XFILL_5_DFFSR_39 gnd vdd FILL
XFILL_31_DFFSR_25 gnd vdd FILL
XFILL_26_DFFSR_245 gnd vdd FILL
XFILL_26_DFFSR_256 gnd vdd FILL
XFILL_31_DFFSR_36 gnd vdd FILL
XINVX1_210 DFFSR_80/Q gnd INVX1_210/Y vdd INVX1
XFILL_26_DFFSR_267 gnd vdd FILL
XFILL_31_DFFSR_47 gnd vdd FILL
XFILL_7_INVX1_207 gnd vdd FILL
XFILL_31_DFFSR_58 gnd vdd FILL
XINVX1_221 DFFSR_64/Q gnd OAI22X1_9/A vdd INVX1
XFILL_53_DFFSR_101 gnd vdd FILL
XFILL_7_INVX1_60 gnd vdd FILL
XFILL_31_DFFSR_69 gnd vdd FILL
XFILL_7_INVX1_71 gnd vdd FILL
XFILL_53_DFFSR_112 gnd vdd FILL
XFILL_7_INVX1_218 gnd vdd FILL
XFILL_53_DFFSR_123 gnd vdd FILL
XFILL_53_DFFSR_134 gnd vdd FILL
XFILL_4_AOI21X1_19 gnd vdd FILL
XFILL_7_INVX1_82 gnd vdd FILL
XFILL_7_INVX1_93 gnd vdd FILL
XFILL_71_DFFSR_13 gnd vdd FILL
XFILL_71_DFFSR_24 gnd vdd FILL
XFILL_53_DFFSR_145 gnd vdd FILL
XFILL_53_DFFSR_156 gnd vdd FILL
XFILL_71_DFFSR_35 gnd vdd FILL
XFILL_53_DFFSR_167 gnd vdd FILL
XFILL_53_DFFSR_178 gnd vdd FILL
XFILL_71_DFFSR_46 gnd vdd FILL
XFILL_14_MUX2X1_3 gnd vdd FILL
XFILL_71_DFFSR_57 gnd vdd FILL
XFILL_57_DFFSR_100 gnd vdd FILL
XFILL_53_DFFSR_189 gnd vdd FILL
XFILL_71_DFFSR_68 gnd vdd FILL
XFILL_57_DFFSR_111 gnd vdd FILL
XFILL_71_DFFSR_79 gnd vdd FILL
XFILL_7_NOR2X1_107 gnd vdd FILL
XFILL_57_DFFSR_122 gnd vdd FILL
XFILL_7_NOR2X1_118 gnd vdd FILL
XFILL_57_DFFSR_133 gnd vdd FILL
XFILL_57_DFFSR_144 gnd vdd FILL
XFILL_7_NOR2X1_129 gnd vdd FILL
XNAND2X1_10 INVX2_1/A INVX1_205/A gnd MUX2X1_71/S vdd NAND2X1
XFILL_13_NAND3X1_20 gnd vdd FILL
XFILL_57_DFFSR_155 gnd vdd FILL
XNAND2X1_21 BUFX4_58/Y NOR2X1_31/Y gnd OAI22X1_32/D vdd NAND2X1
XNAND2X1_32 BUFX4_2/Y NOR3X1_2/Y gnd OAI22X1_48/B vdd NAND2X1
XFILL_13_NAND3X1_31 gnd vdd FILL
XFILL_57_DFFSR_166 gnd vdd FILL
XFILL_57_DFFSR_177 gnd vdd FILL
XFILL_13_NAND3X1_42 gnd vdd FILL
XNAND2X1_43 NOR2X1_8/A INVX1_122/Y gnd NAND3X1_53/B vdd NAND2X1
XFILL_0_DFFSR_104 gnd vdd FILL
XFILL_40_DFFSR_12 gnd vdd FILL
XFILL_13_NAND3X1_53 gnd vdd FILL
XFILL_57_DFFSR_188 gnd vdd FILL
XNAND2X1_54 BUFX4_88/Y NOR2X1_34/Y gnd OAI21X1_4/B vdd NAND2X1
XFILL_13_NAND3X1_64 gnd vdd FILL
XFILL_0_DFFSR_115 gnd vdd FILL
XFILL_57_DFFSR_199 gnd vdd FILL
XFILL_40_DFFSR_23 gnd vdd FILL
XFILL_5_BUFX4_80 gnd vdd FILL
XNAND2X1_65 NOR2X1_76/Y NOR2X1_75/Y gnd NOR3X1_27/C vdd NAND2X1
XFILL_0_DFFSR_126 gnd vdd FILL
XFILL_40_DFFSR_34 gnd vdd FILL
XFILL_65_7_1 gnd vdd FILL
XFILL_33_CLKBUF1_20 gnd vdd FILL
XFILL_5_BUFX4_91 gnd vdd FILL
XFILL_13_NAND3X1_75 gnd vdd FILL
XFILL_11_NOR3X1_9 gnd vdd FILL
XFILL_40_DFFSR_45 gnd vdd FILL
XNAND2X1_76 NOR2X1_12/A NOR2X1_50/Y gnd NAND3X1_11/A vdd NAND2X1
XFILL_0_DFFSR_137 gnd vdd FILL
XFILL_13_NAND3X1_86 gnd vdd FILL
XNAND2X1_87 BUFX2_8/A BUFX2_9/A gnd INVX1_139/A vdd NAND2X1
XFILL_33_CLKBUF1_31 gnd vdd FILL
XFILL_40_DFFSR_56 gnd vdd FILL
XFILL_0_DFFSR_148 gnd vdd FILL
XFILL_13_NAND3X1_97 gnd vdd FILL
XFILL_33_CLKBUF1_42 gnd vdd FILL
XFILL_64_2_0 gnd vdd FILL
XFILL_40_DFFSR_67 gnd vdd FILL
XFILL_0_DFFSR_159 gnd vdd FILL
XFILL_40_DFFSR_78 gnd vdd FILL
XFILL_42_2 gnd vdd FILL
XFILL_40_DFFSR_89 gnd vdd FILL
XFILL_80_DFFSR_11 gnd vdd FILL
XFILL_4_DFFSR_103 gnd vdd FILL
XFILL_80_DFFSR_22 gnd vdd FILL
XFILL_4_DFFSR_114 gnd vdd FILL
XFILL_80_DFFSR_33 gnd vdd FILL
XFILL_4_DFFSR_125 gnd vdd FILL
XFILL_4_DFFSR_136 gnd vdd FILL
XFILL_80_DFFSR_44 gnd vdd FILL
XFILL_80_DFFSR_55 gnd vdd FILL
XFILL_23_MUX2X1_1 gnd vdd FILL
XFILL_4_DFFSR_147 gnd vdd FILL
XFILL_4_DFFSR_158 gnd vdd FILL
XFILL_80_DFFSR_66 gnd vdd FILL
XFILL_80_DFFSR_77 gnd vdd FILL
XFILL_4_DFFSR_169 gnd vdd FILL
XFILL_80_DFFSR_88 gnd vdd FILL
XFILL_80_DFFSR_99 gnd vdd FILL
XFILL_8_DFFSR_102 gnd vdd FILL
XFILL_12_MUX2X1_11 gnd vdd FILL
XFILL_8_DFFSR_113 gnd vdd FILL
XFILL_7_NOR2X1_4 gnd vdd FILL
XFILL_8_DFFSR_124 gnd vdd FILL
XFILL_12_MUX2X1_22 gnd vdd FILL
XFILL_8_DFFSR_135 gnd vdd FILL
XFILL_12_MUX2X1_33 gnd vdd FILL
XFILL_8_DFFSR_146 gnd vdd FILL
XFILL_12_MUX2X1_44 gnd vdd FILL
XFILL_8_DFFSR_157 gnd vdd FILL
XFILL_12_MUX2X1_55 gnd vdd FILL
XFILL_12_MUX2X1_66 gnd vdd FILL
XFILL_8_DFFSR_168 gnd vdd FILL
XFILL_4_OAI22X1_16 gnd vdd FILL
XFILL_12_MUX2X1_77 gnd vdd FILL
XFILL_8_DFFSR_179 gnd vdd FILL
XFILL_0_NOR3X1_15 gnd vdd FILL
XFILL_4_OAI22X1_27 gnd vdd FILL
XFILL_20_NOR3X1_7 gnd vdd FILL
XFILL_12_MUX2X1_88 gnd vdd FILL
XFILL_4_OAI22X1_38 gnd vdd FILL
XFILL_0_NOR3X1_26 gnd vdd FILL
XFILL_4_OAI22X1_49 gnd vdd FILL
XFILL_12_MUX2X1_99 gnd vdd FILL
XFILL_16_MUX2X1_10 gnd vdd FILL
XFILL_0_NOR3X1_37 gnd vdd FILL
XFILL_16_MUX2X1_21 gnd vdd FILL
XFILL_8_OAI21X1_18 gnd vdd FILL
XFILL_0_NOR3X1_48 gnd vdd FILL
XFILL_8_OAI21X1_29 gnd vdd FILL
XFILL_16_MUX2X1_32 gnd vdd FILL
XFILL_16_MUX2X1_43 gnd vdd FILL
XFILL_16_MUX2X1_54 gnd vdd FILL
XFILL_6_MUX2X1_2 gnd vdd FILL
XFILL_16_MUX2X1_65 gnd vdd FILL
XFILL_4_NOR3X1_14 gnd vdd FILL
XFILL_16_MUX2X1_76 gnd vdd FILL
XFILL_16_MUX2X1_87 gnd vdd FILL
XFILL_3_NAND3X1_70 gnd vdd FILL
XFILL_16_MUX2X1_98 gnd vdd FILL
XFILL_4_NOR3X1_25 gnd vdd FILL
XFILL_41_DFFSR_4 gnd vdd FILL
XFILL_4_NOR3X1_36 gnd vdd FILL
XFILL_3_NAND3X1_81 gnd vdd FILL
XFILL_9_DFFSR_3 gnd vdd FILL
XFILL_20_DFFSR_101 gnd vdd FILL
XFILL_3_NAND3X1_92 gnd vdd FILL
XFILL_4_NOR3X1_47 gnd vdd FILL
XFILL_7_NAND2X1_50 gnd vdd FILL
XFILL_20_DFFSR_112 gnd vdd FILL
XFILL_7_NAND2X1_61 gnd vdd FILL
XFILL_20_DFFSR_123 gnd vdd FILL
XFILL_20_DFFSR_134 gnd vdd FILL
XFILL_7_NAND2X1_72 gnd vdd FILL
XFILL_79_DFFSR_2 gnd vdd FILL
XFILL_20_DFFSR_145 gnd vdd FILL
XFILL_7_NAND2X1_83 gnd vdd FILL
XFILL_20_DFFSR_156 gnd vdd FILL
XFILL_8_NOR3X1_13 gnd vdd FILL
XFILL_7_NAND2X1_94 gnd vdd FILL
XFILL_8_NOR3X1_24 gnd vdd FILL
XFILL_20_DFFSR_167 gnd vdd FILL
XFILL_20_DFFSR_178 gnd vdd FILL
XFILL_3_NOR3X1_8 gnd vdd FILL
XFILL_1_INVX1_107 gnd vdd FILL
XFILL_8_NOR3X1_35 gnd vdd FILL
XFILL_20_DFFSR_189 gnd vdd FILL
XFILL_8_NOR3X1_46 gnd vdd FILL
XFILL_1_INVX1_118 gnd vdd FILL
XFILL_24_DFFSR_100 gnd vdd FILL
XFILL_1_INVX1_129 gnd vdd FILL
XFILL_24_DFFSR_111 gnd vdd FILL
XFILL_15_CLKBUF1_14 gnd vdd FILL
XFILL_15_CLKBUF1_25 gnd vdd FILL
XFILL_24_DFFSR_122 gnd vdd FILL
XFILL_15_CLKBUF1_36 gnd vdd FILL
XFILL_24_DFFSR_133 gnd vdd FILL
XFILL_4_BUFX2_9 gnd vdd FILL
XFILL_24_DFFSR_144 gnd vdd FILL
XFILL_10_AOI21X1_11 gnd vdd FILL
XFILL_24_DFFSR_155 gnd vdd FILL
XFILL_10_AOI21X1_22 gnd vdd FILL
XFILL_56_7_1 gnd vdd FILL
XFILL_10_AOI21X1_33 gnd vdd FILL
XFILL_24_DFFSR_166 gnd vdd FILL
XFILL_10_AOI21X1_44 gnd vdd FILL
XFILL_24_DFFSR_177 gnd vdd FILL
XFILL_5_INVX1_106 gnd vdd FILL
XFILL_24_DFFSR_188 gnd vdd FILL
XFILL_1_DFFSR_10 gnd vdd FILL
XFILL_55_2_0 gnd vdd FILL
XFILL_5_INVX1_117 gnd vdd FILL
XFILL_1_DFFSR_21 gnd vdd FILL
XFILL_10_AOI21X1_55 gnd vdd FILL
XFILL_10_AOI21X1_66 gnd vdd FILL
XFILL_5_INVX1_128 gnd vdd FILL
XFILL_28_DFFSR_110 gnd vdd FILL
XFILL_24_DFFSR_199 gnd vdd FILL
XFILL_5_INVX1_139 gnd vdd FILL
XFILL_10_AOI21X1_77 gnd vdd FILL
XFILL_28_DFFSR_121 gnd vdd FILL
XFILL_1_DFFSR_32 gnd vdd FILL
XFILL_1_DFFSR_43 gnd vdd FILL
XFILL_28_DFFSR_132 gnd vdd FILL
XFILL_28_DFFSR_143 gnd vdd FILL
XFILL_1_DFFSR_54 gnd vdd FILL
XFILL_28_DFFSR_154 gnd vdd FILL
XFILL_63_DFFSR_8 gnd vdd FILL
XFILL_1_DFFSR_65 gnd vdd FILL
XFILL_1_DFFSR_76 gnd vdd FILL
XFILL_28_DFFSR_165 gnd vdd FILL
XFILL_1_DFFSR_87 gnd vdd FILL
XFILL_20_NOR3X1_12 gnd vdd FILL
XFILL_28_DFFSR_176 gnd vdd FILL
XFILL_1_DFFSR_98 gnd vdd FILL
XFILL_28_DFFSR_187 gnd vdd FILL
XFILL_28_DFFSR_198 gnd vdd FILL
XFILL_20_NOR3X1_23 gnd vdd FILL
XFILL_20_NOR3X1_34 gnd vdd FILL
XFILL_70_DFFSR_201 gnd vdd FILL
XFILL_20_NOR3X1_45 gnd vdd FILL
XFILL_70_DFFSR_212 gnd vdd FILL
XFILL_70_DFFSR_223 gnd vdd FILL
XFILL_70_DFFSR_234 gnd vdd FILL
XFILL_12_NAND3X1_105 gnd vdd FILL
XFILL_70_DFFSR_245 gnd vdd FILL
XFILL_24_NOR3X1_11 gnd vdd FILL
XFILL_12_NAND3X1_116 gnd vdd FILL
XFILL_70_DFFSR_256 gnd vdd FILL
XFILL_12_NAND3X1_127 gnd vdd FILL
XFILL_24_NOR3X1_22 gnd vdd FILL
XFILL_70_DFFSR_267 gnd vdd FILL
XFILL_24_NOR3X1_33 gnd vdd FILL
XFILL_74_DFFSR_200 gnd vdd FILL
XFILL_24_NOR3X1_44 gnd vdd FILL
XFILL_74_DFFSR_211 gnd vdd FILL
XFILL_74_DFFSR_222 gnd vdd FILL
XFILL_74_DFFSR_233 gnd vdd FILL
XFILL_74_DFFSR_244 gnd vdd FILL
XFILL_3_BUFX4_3 gnd vdd FILL
XFILL_28_NOR3X1_10 gnd vdd FILL
XFILL_74_DFFSR_255 gnd vdd FILL
XFILL_5_CLKBUF1_20 gnd vdd FILL
XFILL_74_DFFSR_266 gnd vdd FILL
XFILL_28_NOR3X1_21 gnd vdd FILL
XFILL_28_NOR3X1_32 gnd vdd FILL
XFILL_5_CLKBUF1_31 gnd vdd FILL
XFILL_5_CLKBUF1_42 gnd vdd FILL
XFILL_28_NOR3X1_43 gnd vdd FILL
XFILL_78_DFFSR_210 gnd vdd FILL
XOAI22X1_3 INVX1_85/Y OAI22X1_8/B INVX1_81/Y OAI22X1_3/D gnd OAI22X1_3/Y vdd OAI22X1
XFILL_13_MUX2X1_105 gnd vdd FILL
XFILL_13_MUX2X1_116 gnd vdd FILL
XFILL_78_DFFSR_221 gnd vdd FILL
XFILL_13_MUX2X1_127 gnd vdd FILL
XFILL_13_MUX2X1_138 gnd vdd FILL
XFILL_78_DFFSR_232 gnd vdd FILL
XFILL_78_DFFSR_243 gnd vdd FILL
XFILL_13_MUX2X1_149 gnd vdd FILL
XFILL_0_AOI21X1_50 gnd vdd FILL
XFILL_78_DFFSR_254 gnd vdd FILL
XFILL_0_AOI21X1_61 gnd vdd FILL
XFILL_78_DFFSR_265 gnd vdd FILL
XFILL_0_AOI21X1_72 gnd vdd FILL
XFILL_10_OAI22X1_30 gnd vdd FILL
XFILL_33_CLKBUF1_6 gnd vdd FILL
XFILL_10_OAI22X1_41 gnd vdd FILL
XFILL_14_OAI21X1_10 gnd vdd FILL
XFILL_14_OAI21X1_21 gnd vdd FILL
XFILL_14_OAI21X1_32 gnd vdd FILL
XFILL_14_OAI21X1_43 gnd vdd FILL
XFILL_3_NOR2X1_160 gnd vdd FILL
XFILL_3_NOR2X1_171 gnd vdd FILL
XFILL_3_NOR2X1_182 gnd vdd FILL
XFILL_2_INVX1_7 gnd vdd FILL
XFILL_3_NOR2X1_193 gnd vdd FILL
XFILL_47_7_1 gnd vdd FILL
XFILL_46_2_0 gnd vdd FILL
XFILL_20_MUX2X1_140 gnd vdd FILL
XFILL_21_7 gnd vdd FILL
XFILL_20_MUX2X1_151 gnd vdd FILL
XFILL_3_MUX2X1_100 gnd vdd FILL
XFILL_20_MUX2X1_162 gnd vdd FILL
XFILL_3_MUX2X1_111 gnd vdd FILL
XFILL_20_MUX2X1_173 gnd vdd FILL
XFILL_20_MUX2X1_184 gnd vdd FILL
XFILL_3_MUX2X1_122 gnd vdd FILL
XFILL_14_6 gnd vdd FILL
XFILL_3_MUX2X1_133 gnd vdd FILL
XFILL_30_6_1 gnd vdd FILL
XFILL_3_MUX2X1_144 gnd vdd FILL
XFILL_14_BUFX4_15 gnd vdd FILL
XFILL_3_MUX2X1_155 gnd vdd FILL
XFILL_14_BUFX4_26 gnd vdd FILL
XFILL_3_MUX2X1_166 gnd vdd FILL
XFILL_14_BUFX4_37 gnd vdd FILL
XFILL_6_INVX8_1 gnd vdd FILL
XFILL_14_BUFX4_48 gnd vdd FILL
XFILL_3_MUX2X1_177 gnd vdd FILL
XDFFSR_205 INVX1_89/A DFFSR_57/CLK BUFX4_21/Y vdd MUX2X1_76/Y gnd vdd DFFSR
XFILL_3_MUX2X1_188 gnd vdd FILL
XFILL_14_BUFX4_59 gnd vdd FILL
XDFFSR_216 INVX1_83/A CLKBUF1_4/Y DFFSR_49/R vdd MUX2X1_70/Y gnd vdd DFFSR
XDFFSR_227 INVX1_67/A CLKBUF1_26/Y DFFSR_4/R vdd MUX2X1_54/Y gnd vdd DFFSR
XFILL_41_DFFSR_200 gnd vdd FILL
XDFFSR_238 INVX1_61/A DFFSR_52/CLK DFFSR_42/R vdd MUX2X1_48/Y gnd vdd DFFSR
XFILL_41_DFFSR_211 gnd vdd FILL
XDFFSR_249 INVX1_45/A CLKBUF1_5/Y DFFSR_49/R vdd MUX2X1_32/Y gnd vdd DFFSR
XFILL_3_OAI21X1_1 gnd vdd FILL
XFILL_41_DFFSR_222 gnd vdd FILL
XFILL_41_DFFSR_233 gnd vdd FILL
XFILL_41_DFFSR_244 gnd vdd FILL
XFILL_41_DFFSR_255 gnd vdd FILL
XFILL_0_NOR2X1_70 gnd vdd FILL
XFILL_0_NOR2X1_81 gnd vdd FILL
XFILL_41_DFFSR_266 gnd vdd FILL
XFILL_0_NOR2X1_92 gnd vdd FILL
XFILL_45_DFFSR_210 gnd vdd FILL
XFILL_23_DFFSR_1 gnd vdd FILL
XFILL_45_DFFSR_221 gnd vdd FILL
XFILL_80_DFFSR_2 gnd vdd FILL
XFILL_45_DFFSR_232 gnd vdd FILL
XFILL_45_DFFSR_243 gnd vdd FILL
XFILL_45_DFFSR_254 gnd vdd FILL
XFILL_45_DFFSR_265 gnd vdd FILL
XFILL_4_NOR2X1_80 gnd vdd FILL
XFILL_4_NOR2X1_91 gnd vdd FILL
XFILL_72_DFFSR_110 gnd vdd FILL
XFILL_49_DFFSR_220 gnd vdd FILL
XFILL_72_DFFSR_121 gnd vdd FILL
XFILL_72_DFFSR_132 gnd vdd FILL
XFILL_72_DFFSR_143 gnd vdd FILL
XFILL_49_DFFSR_231 gnd vdd FILL
XFILL_49_DFFSR_242 gnd vdd FILL
XFILL_9_AND2X2_8 gnd vdd FILL
XFILL_72_DFFSR_154 gnd vdd FILL
XFILL_49_DFFSR_253 gnd vdd FILL
XFILL_38_7_1 gnd vdd FILL
XFILL_72_DFFSR_165 gnd vdd FILL
XFILL_49_DFFSR_264 gnd vdd FILL
XFILL_49_DFFSR_275 gnd vdd FILL
XFILL_72_DFFSR_176 gnd vdd FILL
XFILL_8_NOR2X1_90 gnd vdd FILL
XFILL_72_DFFSR_187 gnd vdd FILL
XFILL_72_DFFSR_198 gnd vdd FILL
XFILL_37_2_0 gnd vdd FILL
XFILL_76_DFFSR_120 gnd vdd FILL
XFILL_6_NAND3X1_14 gnd vdd FILL
XFILL_76_DFFSR_131 gnd vdd FILL
XFILL_6_NAND3X1_25 gnd vdd FILL
XFILL_76_DFFSR_142 gnd vdd FILL
XFILL_6_NAND3X1_36 gnd vdd FILL
XFILL_76_DFFSR_153 gnd vdd FILL
XFILL_6_NAND3X1_47 gnd vdd FILL
XFILL_6_NAND3X1_58 gnd vdd FILL
XFILL_76_DFFSR_164 gnd vdd FILL
XFILL_45_DFFSR_5 gnd vdd FILL
XFILL_6_NAND3X1_69 gnd vdd FILL
XFILL_76_DFFSR_175 gnd vdd FILL
XFILL_76_DFFSR_186 gnd vdd FILL
XFILL_6_BUFX4_14 gnd vdd FILL
XFILL_76_DFFSR_197 gnd vdd FILL
XFILL_6_BUFX4_25 gnd vdd FILL